<?xml version="1.0" encoding="UTF-8"?>

<!-- generated on 2025-05-21 13:03:14 by Eclipse SUMO netconvert Version 1.23.1
<netconvertConfiguration xmlns:xsi="http://www.w3.org/2001/XMLSchema-instance" xsi:noNamespaceSchemaLocation="http://sumo.dlr.de/xsd/netconvertConfiguration.xsd">

    <input>
        <node-files value="network/nodes.nod.xml"/>
        <edge-files value="network/edges.edg.xml"/>
        <type-files value="network/types.typ.xml"/>
    </input>

    <output>
        <output-file value="network/network.net.xml"/>
        <plain-output-prefix value="&#45;&#45;verbose"/>
    </output>

</netconvertConfiguration>
-->

<connections version="1.20" xmlns:xsi="http://www.w3.org/2001/XMLSchema-instance" xsi:noNamespaceSchemaLocation="http://sumo.dlr.de/xsd/connections_file.xsd">
    <connection from="n1n5" to="n5n3" fromLane="0" toLane="0"/>
    <connection from="n1n5" to="n5n9" fromLane="0" toLane="0"/>
    <connection from="n1n5" to="n5n2" fromLane="0" toLane="0"/>
    <connection from="n1n5" to="n5n4" fromLane="0" toLane="0"/>
    <connection from="n1n5" to="n5n1" fromLane="0" toLane="0"/>

    <connection from="n2n5" to="n5n4" fromLane="0" toLane="0"/>
    <connection from="n2n5" to="n5n1" fromLane="0" toLane="0"/>
    <connection from="n2n5" to="n5n3" fromLane="0" toLane="0"/>
    <connection from="n2n5" to="n5n9" fromLane="0" toLane="0"/>
    <connection from="n2n5" to="n5n2" fromLane="0" toLane="0"/>

    <connection from="n3n5" to="n5n9" fromLane="0" toLane="0"/>
    <connection from="n3n5" to="n5n2" fromLane="0" toLane="0"/>
    <connection from="n3n5" to="n5n4" fromLane="0" toLane="0"/>
    <connection from="n3n5" to="n5n1" fromLane="0" toLane="0"/>
    <connection from="n3n5" to="n5n3" fromLane="0" toLane="0"/>

    <connection from="n4n5" to="n5n1" fromLane="0" toLane="0"/>
    <connection from="n4n5" to="n5n3" fromLane="0" toLane="0"/>
    <connection from="n4n5" to="n5n9" fromLane="0" toLane="0"/>
    <connection from="n4n5" to="n5n2" fromLane="0" toLane="0"/>
    <connection from="n4n5" to="n5n4" fromLane="0" toLane="0"/>

    <connection from="n5n1" to="n1n5" fromLane="0" toLane="0"/>

    <connection from="n5n2" to="n2n5" fromLane="0" toLane="0"/>

    <connection from="n5n3" to="n3n5" fromLane="0" toLane="0"/>

    <connection from="n5n4" to="n4n5" fromLane="0" toLane="0"/>

    <connection from="n5n9" to="n9n8" fromLane="0" toLane="0"/>
    <connection from="n5n9" to="n9n6" fromLane="0" toLane="0"/>
    <connection from="n5n9" to="n9n7" fromLane="0" toLane="0"/>
    <connection from="n5n9" to="n9n5" fromLane="0" toLane="0"/>

    <connection from="n6n9" to="n9n7" fromLane="0" toLane="0"/>
    <connection from="n6n9" to="n9n5" fromLane="0" toLane="0"/>
    <connection from="n6n9" to="n9n8" fromLane="0" toLane="0"/>
    <connection from="n6n9" to="n9n6" fromLane="0" toLane="0"/>

    <connection from="n7n9" to="n9n5" fromLane="0" toLane="0"/>
    <connection from="n7n9" to="n9n8" fromLane="0" toLane="0"/>
    <connection from="n7n9" to="n9n6" fromLane="0" toLane="0"/>
    <connection from="n7n9" to="n9n7" fromLane="0" toLane="0"/>

    <connection from="n8n9" to="n9n6" fromLane="0" toLane="0"/>
    <connection from="n8n9" to="n9n7" fromLane="0" toLane="0"/>
    <connection from="n8n9" to="n9n5" fromLane="0" toLane="0"/>
    <connection from="n8n9" to="n9n8" fromLane="0" toLane="0"/>

    <connection from="n9n5" to="n5n4" fromLane="0" toLane="0"/>
    <connection from="n9n5" to="n5n1" fromLane="0" toLane="0"/>
    <connection from="n9n5" to="n5n3" fromLane="0" toLane="0"/>
    <connection from="n9n5" to="n5n2" fromLane="0" toLane="0"/>
    <connection from="n9n5" to="n5n9" fromLane="0" toLane="0"/>

    <connection from="n9n6" to="n6n9" fromLane="0" toLane="0"/>

    <connection from="n9n7" to="n7n9" fromLane="0" toLane="0"/>

    <connection from="n9n8" to="n8n9" fromLane="0" toLane="0"/>

</connections>
