<?xml version="1.0" encoding="UTF-8"?>

<!-- generated on 2025-05-21 13:03:14 by Eclipse SUMO netconvert Version 1.23.1
<netconvertConfiguration xmlns:xsi="http://www.w3.org/2001/XMLSchema-instance" xsi:noNamespaceSchemaLocation="http://sumo.dlr.de/xsd/netconvertConfiguration.xsd">

    <input>
        <node-files value="network/nodes.nod.xml"/>
        <edge-files value="network/edges.edg.xml"/>
        <type-files value="network/types.typ.xml"/>
    </input>

    <output>
        <output-file value="network/network.net.xml"/>
        <plain-output-prefix value="&#45;&#45;verbose"/>
    </output>

</netconvertConfiguration>
-->

<tlLogics version="1.20" xmlns:xsi="http://www.w3.org/2001/XMLSchema-instance" xsi:noNamespaceSchemaLocation="http://sumo.dlr.de/xsd/tllogic_file.xsd">
    <tlLogic id="n6" type="static" programID="0" offset="0">
        <phase duration="82" state="G"/>
        <phase duration="3"  state="y"/>
        <phase duration="5"  state="r"/>
    </tlLogic>
    <tlLogic id="n7" type="static" programID="0" offset="0">
        <phase duration="82" state="G"/>
        <phase duration="3"  state="y"/>
        <phase duration="5"  state="r"/>
    </tlLogic>
    <tlLogic id="n8" type="static" programID="0" offset="0">
        <phase duration="82" state="G"/>
        <phase duration="3"  state="y"/>
        <phase duration="5"  state="r"/>
    </tlLogic>
    <tlLogic id="n9" type="static" programID="0" offset="0">
        <phase duration="42" state="GGggrrrrGGggrrrr"/>
        <phase duration="3"  state="yyyyrrrryyyyrrrr"/>
        <phase duration="42" state="rrrrGGggrrrrGGgg"/>
        <phase duration="3"  state="rrrryyyyrrrryyyy"/>
    </tlLogic>

    <connection from="n5n9" to="n9n8" fromLane="0" toLane="0" tl="n9" linkIndex="0"/>
    <connection from="n5n9" to="n9n6" fromLane="0" toLane="0" tl="n9" linkIndex="1"/>
    <connection from="n5n9" to="n9n7" fromLane="0" toLane="0" tl="n9" linkIndex="2"/>
    <connection from="n5n9" to="n9n5" fromLane="0" toLane="0" tl="n9" linkIndex="3"/>
    <connection from="n6n9" to="n9n7" fromLane="0" toLane="0" tl="n9" linkIndex="8"/>
    <connection from="n6n9" to="n9n5" fromLane="0" toLane="0" tl="n9" linkIndex="9"/>
    <connection from="n6n9" to="n9n8" fromLane="0" toLane="0" tl="n9" linkIndex="10"/>
    <connection from="n6n9" to="n9n6" fromLane="0" toLane="0" tl="n9" linkIndex="11"/>
    <connection from="n7n9" to="n9n5" fromLane="0" toLane="0" tl="n9" linkIndex="4"/>
    <connection from="n7n9" to="n9n8" fromLane="0" toLane="0" tl="n9" linkIndex="5"/>
    <connection from="n7n9" to="n9n6" fromLane="0" toLane="0" tl="n9" linkIndex="6"/>
    <connection from="n7n9" to="n9n7" fromLane="0" toLane="0" tl="n9" linkIndex="7"/>
    <connection from="n8n9" to="n9n6" fromLane="0" toLane="0" tl="n9" linkIndex="12"/>
    <connection from="n8n9" to="n9n7" fromLane="0" toLane="0" tl="n9" linkIndex="13"/>
    <connection from="n8n9" to="n9n5" fromLane="0" toLane="0" tl="n9" linkIndex="14"/>
    <connection from="n8n9" to="n9n8" fromLane="0" toLane="0" tl="n9" linkIndex="15"/>
    <connection from="n9n6" to="n6n9" fromLane="0" toLane="0" tl="n6" linkIndex="0"/>
    <connection from="n9n7" to="n7n9" fromLane="0" toLane="0" tl="n7" linkIndex="0"/>
    <connection from="n9n8" to="n8n9" fromLane="0" toLane="0" tl="n8" linkIndex="0"/>
</tlLogics>
