<?xml version="1.0" encoding="UTF-8"?>

<!-- generated on 2025-05-21 13:03:14 by Eclipse SUMO netconvert Version 1.23.1
<netconvertConfiguration xmlns:xsi="http://www.w3.org/2001/XMLSchema-instance" xsi:noNamespaceSchemaLocation="http://sumo.dlr.de/xsd/netconvertConfiguration.xsd">

    <input>
        <node-files value="network/nodes.nod.xml"/>
        <edge-files value="network/edges.edg.xml"/>
        <type-files value="network/types.typ.xml"/>
    </input>

    <output>
        <output-file value="network/network.net.xml"/>
        <plain-output-prefix value="&#45;&#45;verbose"/>
    </output>

</netconvertConfiguration>
-->

<nodes version="1.20" xmlns:xsi="http://www.w3.org/2001/XMLSchema-instance" xsi:noNamespaceSchemaLocation="http://sumo.dlr.de/xsd/nodes_file.xsd">
    <location netOffset="100.00,100.00" convBoundary="0.00,0.00,200.00,200.00" origBoundary="-100.00,-100.00,100.00,100.00" projParameter="!"/>

    <node id="n1" x="100.00" y="200.00" type="priority"/>
    <node id="n2" x="100.00" y="100.00" type="priority"/>
    <node id="n3" x="0.00" y="150.00" type="priority"/>
    <node id="n4" x="200.00" y="150.00" type="priority"/>
    <node id="n5" x="100.00" y="150.00" type="priority"/>
    <node id="n6" x="100.00" y="0.00" type="traffic_light" tl="n6"/>
    <node id="n7" x="200.00" y="50.00" type="traffic_light" tl="n7"/>
    <node id="n8" x="0.00" y="50.00" type="traffic_light" tl="n8"/>
    <node id="n9" x="100.00" y="50.00" type="traffic_light" tl="n9"/>
</nodes>
