<?xml version="1.0" encoding="UTF-8"?>

<!-- generated on 2025-05-21 13:03:14 by Eclipse SUMO netconvert Version 1.23.1
<netconvertConfiguration xmlns:xsi="http://www.w3.org/2001/XMLSchema-instance" xsi:noNamespaceSchemaLocation="http://sumo.dlr.de/xsd/netconvertConfiguration.xsd">

    <input>
        <node-files value="network/nodes.nod.xml"/>
        <edge-files value="network/edges.edg.xml"/>
        <type-files value="network/types.typ.xml"/>
    </input>

    <output>
        <output-file value="network/network.net.xml"/>
        <plain-output-prefix value="&#45;&#45;verbose"/>
    </output>

</netconvertConfiguration>
-->

<edges version="1.20" xmlns:xsi="http://www.w3.org/2001/XMLSchema-instance" xsi:noNamespaceSchemaLocation="http://sumo.dlr.de/xsd/edges_file.xsd">
    <edge id="n1n5" from="n1" to="n5" priority="3" type="car" numLanes="1" speed="13.90"/>
    <edge id="n2n5" from="n2" to="n5" priority="3" type="car" numLanes="1" speed="13.90"/>
    <edge id="n3n5" from="n3" to="n5" priority="3" type="car" numLanes="1" speed="13.90"/>
    <edge id="n4n5" from="n4" to="n5" priority="3" type="car" numLanes="1" speed="13.90"/>
    <edge id="n5n1" from="n5" to="n1" priority="-1" type="car" numLanes="1" speed="13.90"/>
    <edge id="n5n2" from="n5" to="n2" priority="-1" type="car" numLanes="1" speed="13.90"/>
    <edge id="n5n3" from="n5" to="n3" priority="-1" type="car" numLanes="1" speed="13.90"/>
    <edge id="n5n4" from="n5" to="n4" priority="-1" type="car" numLanes="1" speed="13.90"/>
    <edge id="n5n9" from="n5" to="n9" priority="-1" type="car" numLanes="1" speed="13.90"/>
    <edge id="n6n9" from="n6" to="n9" priority="-1" type="car" numLanes="1" speed="13.90"/>
    <edge id="n7n9" from="n7" to="n9" priority="-1" type="car" numLanes="1" speed="13.90"/>
    <edge id="n8n9" from="n8" to="n9" priority="-1" type="car" numLanes="1" speed="13.90"/>
    <edge id="n9n5" from="n9" to="n5" priority="-1" type="car" numLanes="1" speed="13.90"/>
    <edge id="n9n6" from="n9" to="n6" priority="-1" type="car" numLanes="1" speed="13.90"/>
    <edge id="n9n7" from="n9" to="n7" priority="-1" type="car" numLanes="1" speed="13.90"/>
    <edge id="n9n8" from="n9" to="n8" priority="-1" type="car" numLanes="1" speed="13.90"/>
</edges>
