<?xml version="1.0" encoding="UTF-8"?>

<!-- generated on 2025-06-10 15:37:49.168784 by randomTrips.py v1_23_1+0000-676720d13f6
<configuration>
    <net-file value="tl_intersection.net.xml"/>
    <output-trip-file value="tl_intersection.rou.xml"/>
    <prefix value="veh"/>
    <trip-attributes value="departLane=&quot;best&quot; departSpeed=&quot;max&quot;"/>
    <min-distance value="20.0"/>
    <period value="5.0"/>
</configuration>
-->

<routes xmlns:xsi="http://www.w3.org/2001/XMLSchema-instance" xsi:noNamespaceSchemaLocation="http://sumo.dlr.de/xsd/routes_file.xsd">
    <trip id="veh0" depart="0.00" from="in_n4_1" to="out_1_n2" departLane="best" departSpeed="max"/>
    <trip id="veh1" depart="5.00" from="in_n3_1" to="out_1_n2" departLane="best" departSpeed="max"/>
    <trip id="veh2" depart="10.00" from="in_n5_1" to="out_1_n2" departLane="best" departSpeed="max"/>
    <trip id="veh3" depart="15.00" from="in_n3_1" to="out_1_n2" departLane="best" departSpeed="max"/>
    <trip id="veh4" depart="20.00" from="in_n2_1" to="out_1_n4" departLane="best" departSpeed="max"/>
    <trip id="veh5" depart="25.00" from="in_n2_1" to="out_1_n4" departLane="best" departSpeed="max"/>
    <trip id="veh6" depart="30.00" from="in_n5_1" to="out_1_n2" departLane="best" departSpeed="max"/>
    <trip id="veh7" depart="35.00" from="in_n5_1" to="out_1_n4" departLane="best" departSpeed="max"/>
    <trip id="veh8" depart="40.00" from="in_n3_1" to="out_1_n2" departLane="best" departSpeed="max"/>
    <trip id="veh9" depart="45.00" from="in_n5_1" to="out_1_n3" departLane="best" departSpeed="max"/>
    <trip id="veh10" depart="50.00" from="in_n5_1" to="out_1_n4" departLane="best" departSpeed="max"/>
    <trip id="veh11" depart="55.00" from="in_n5_1" to="out_1_n4" departLane="best" departSpeed="max"/>
    <trip id="veh12" depart="60.00" from="in_n4_1" to="out_1_n5" departLane="best" departSpeed="max"/>
    <trip id="veh13" depart="65.00" from="in_n3_1" to="out_1_n4" departLane="best" departSpeed="max"/>
    <trip id="veh14" depart="70.00" from="in_n5_1" to="out_1_n4" departLane="best" departSpeed="max"/>
    <trip id="veh15" depart="75.00" from="in_n5_1" to="out_1_n4" departLane="best" departSpeed="max"/>
    <trip id="veh16" depart="80.00" from="in_n4_1" to="out_1_n2" departLane="best" departSpeed="max"/>
    <trip id="veh17" depart="85.00" from="in_n2_1" to="out_1_n3" departLane="best" departSpeed="max"/>
    <trip id="veh18" depart="90.00" from="in_n2_1" to="out_1_n3" departLane="best" departSpeed="max"/>
    <trip id="veh19" depart="95.00" from="in_n4_1" to="out_1_n3" departLane="best" departSpeed="max"/>
    <trip id="veh20" depart="100.00" from="in_n3_1" to="out_1_n2" departLane="best" departSpeed="max"/>
    <trip id="veh21" depart="105.00" from="in_n3_1" to="out_1_n5" departLane="best" departSpeed="max"/>
    <trip id="veh22" depart="110.00" from="in_n2_1" to="out_1_n4" departLane="best" departSpeed="max"/>
    <trip id="veh23" depart="115.00" from="in_n2_1" to="out_1_n3" departLane="best" departSpeed="max"/>
    <trip id="veh24" depart="120.00" from="in_n5_1" to="out_1_n4" departLane="best" departSpeed="max"/>
    <trip id="veh25" depart="125.00" from="in_n2_1" to="out_1_n5" departLane="best" departSpeed="max"/>
    <trip id="veh26" depart="130.00" from="in_n5_1" to="out_1_n3" departLane="best" departSpeed="max"/>
    <trip id="veh27" depart="135.00" from="in_n4_1" to="out_1_n3" departLane="best" departSpeed="max"/>
    <trip id="veh28" depart="140.00" from="in_n5_1" to="out_1_n3" departLane="best" departSpeed="max"/>
    <trip id="veh29" depart="145.00" from="in_n3_1" to="out_1_n2" departLane="best" departSpeed="max"/>
    <trip id="veh30" depart="150.00" from="in_n4_1" to="out_1_n3" departLane="best" departSpeed="max"/>
    <trip id="veh31" depart="155.00" from="in_n4_1" to="out_1_n5" departLane="best" departSpeed="max"/>
    <trip id="veh32" depart="160.00" from="in_n3_1" to="out_1_n2" departLane="best" departSpeed="max"/>
    <trip id="veh33" depart="165.00" from="in_n5_1" to="out_1_n4" departLane="best" departSpeed="max"/>
    <trip id="veh34" depart="170.00" from="in_n2_1" to="out_1_n4" departLane="best" departSpeed="max"/>
    <trip id="veh35" depart="175.00" from="in_n5_1" to="out_1_n3" departLane="best" departSpeed="max"/>
    <trip id="veh36" depart="180.00" from="in_n2_1" to="out_1_n3" departLane="best" departSpeed="max"/>
    <trip id="veh37" depart="185.00" from="in_n5_1" to="out_1_n4" departLane="best" departSpeed="max"/>
    <trip id="veh38" depart="190.00" from="in_n2_1" to="out_1_n4" departLane="best" departSpeed="max"/>
    <trip id="veh39" depart="195.00" from="in_n3_1" to="out_1_n4" departLane="best" departSpeed="max"/>
    <trip id="veh40" depart="200.00" from="in_n2_1" to="out_1_n3" departLane="best" departSpeed="max"/>
    <trip id="veh41" depart="205.00" from="in_n3_1" to="out_1_n5" departLane="best" departSpeed="max"/>
    <trip id="veh42" depart="210.00" from="in_n5_1" to="out_1_n3" departLane="best" departSpeed="max"/>
    <trip id="veh43" depart="215.00" from="in_n4_1" to="out_1_n2" departLane="best" departSpeed="max"/>
    <trip id="veh44" depart="220.00" from="in_n3_1" to="out_1_n4" departLane="best" departSpeed="max"/>
    <trip id="veh45" depart="225.00" from="in_n4_1" to="out_1_n2" departLane="best" departSpeed="max"/>
    <trip id="veh46" depart="230.00" from="in_n5_1" to="out_1_n4" departLane="best" departSpeed="max"/>
    <trip id="veh47" depart="235.00" from="in_n5_1" to="out_1_n4" departLane="best" departSpeed="max"/>
    <trip id="veh48" depart="240.00" from="in_n2_1" to="out_1_n3" departLane="best" departSpeed="max"/>
    <trip id="veh49" depart="245.00" from="in_n2_1" to="out_1_n5" departLane="best" departSpeed="max"/>
    <trip id="veh50" depart="250.00" from="in_n3_1" to="out_1_n2" departLane="best" departSpeed="max"/>
    <trip id="veh51" depart="255.00" from="in_n2_1" to="out_1_n3" departLane="best" departSpeed="max"/>
    <trip id="veh52" depart="260.00" from="in_n2_1" to="out_1_n5" departLane="best" departSpeed="max"/>
    <trip id="veh53" depart="265.00" from="in_n5_1" to="out_1_n2" departLane="best" departSpeed="max"/>
    <trip id="veh54" depart="270.00" from="in_n3_1" to="out_1_n4" departLane="best" departSpeed="max"/>
    <trip id="veh55" depart="275.00" from="in_n3_1" to="out_1_n5" departLane="best" departSpeed="max"/>
    <trip id="veh56" depart="280.00" from="in_n3_1" to="out_1_n2" departLane="best" departSpeed="max"/>
    <trip id="veh57" depart="285.00" from="in_n2_1" to="out_1_n3" departLane="best" departSpeed="max"/>
    <trip id="veh58" depart="290.00" from="in_n5_1" to="out_1_n4" departLane="best" departSpeed="max"/>
    <trip id="veh59" depart="295.00" from="in_n3_1" to="out_1_n4" departLane="best" departSpeed="max"/>
    <trip id="veh60" depart="300.00" from="in_n3_1" to="out_1_n4" departLane="best" departSpeed="max"/>
    <trip id="veh61" depart="305.00" from="in_n2_1" to="out_1_n4" departLane="best" departSpeed="max"/>
    <trip id="veh62" depart="310.00" from="in_n2_1" to="out_1_n5" departLane="best" departSpeed="max"/>
    <trip id="veh63" depart="315.00" from="in_n5_1" to="out_1_n2" departLane="best" departSpeed="max"/>
    <trip id="veh64" depart="320.00" from="in_n2_1" to="out_1_n4" departLane="best" departSpeed="max"/>
    <trip id="veh65" depart="325.00" from="in_n5_1" to="out_1_n4" departLane="best" departSpeed="max"/>
    <trip id="veh66" depart="330.00" from="in_n3_1" to="out_1_n5" departLane="best" departSpeed="max"/>
    <trip id="veh67" depart="335.00" from="in_n5_1" to="out_1_n2" departLane="best" departSpeed="max"/>
    <trip id="veh68" depart="340.00" from="in_n2_1" to="out_1_n3" departLane="best" departSpeed="max"/>
    <trip id="veh69" depart="345.00" from="in_n5_1" to="out_1_n2" departLane="best" departSpeed="max"/>
    <trip id="veh70" depart="350.00" from="in_n5_1" to="out_1_n2" departLane="best" departSpeed="max"/>
    <trip id="veh71" depart="355.00" from="in_n2_1" to="out_1_n3" departLane="best" departSpeed="max"/>
    <trip id="veh72" depart="360.00" from="in_n2_1" to="out_1_n5" departLane="best" departSpeed="max"/>
    <trip id="veh73" depart="365.00" from="in_n3_1" to="out_1_n5" departLane="best" departSpeed="max"/>
    <trip id="veh74" depart="370.00" from="in_n4_1" to="out_1_n2" departLane="best" departSpeed="max"/>
    <trip id="veh75" depart="375.00" from="in_n5_1" to="out_1_n2" departLane="best" departSpeed="max"/>
    <trip id="veh76" depart="380.00" from="in_n3_1" to="out_1_n2" departLane="best" departSpeed="max"/>
    <trip id="veh77" depart="385.00" from="in_n3_1" to="out_1_n2" departLane="best" departSpeed="max"/>
    <trip id="veh78" depart="390.00" from="in_n3_1" to="out_1_n5" departLane="best" departSpeed="max"/>
    <trip id="veh79" depart="395.00" from="in_n3_1" to="out_1_n5" departLane="best" departSpeed="max"/>
    <trip id="veh80" depart="400.00" from="in_n2_1" to="out_1_n3" departLane="best" departSpeed="max"/>
    <trip id="veh81" depart="405.00" from="in_n5_1" to="out_1_n4" departLane="best" departSpeed="max"/>
    <trip id="veh82" depart="410.00" from="in_n2_1" to="out_1_n4" departLane="best" departSpeed="max"/>
    <trip id="veh83" depart="415.00" from="in_n4_1" to="out_1_n5" departLane="best" departSpeed="max"/>
    <trip id="veh84" depart="420.00" from="in_n2_1" to="out_1_n5" departLane="best" departSpeed="max"/>
    <trip id="veh85" depart="425.00" from="in_n5_1" to="out_1_n2" departLane="best" departSpeed="max"/>
    <trip id="veh86" depart="430.00" from="in_n3_1" to="out_1_n4" departLane="best" departSpeed="max"/>
    <trip id="veh87" depart="435.00" from="in_n4_1" to="out_1_n5" departLane="best" departSpeed="max"/>
    <trip id="veh88" depart="440.00" from="in_n2_1" to="out_1_n4" departLane="best" departSpeed="max"/>
    <trip id="veh89" depart="445.00" from="in_n2_1" to="out_1_n3" departLane="best" departSpeed="max"/>
    <trip id="veh90" depart="450.00" from="in_n4_1" to="out_1_n3" departLane="best" departSpeed="max"/>
    <trip id="veh91" depart="455.00" from="in_n3_1" to="out_1_n5" departLane="best" departSpeed="max"/>
    <trip id="veh92" depart="460.00" from="in_n2_1" to="out_1_n3" departLane="best" departSpeed="max"/>
    <trip id="veh93" depart="465.00" from="in_n3_1" to="out_1_n5" departLane="best" departSpeed="max"/>
    <trip id="veh94" depart="470.00" from="in_n3_1" to="out_1_n2" departLane="best" departSpeed="max"/>
    <trip id="veh95" depart="475.00" from="in_n5_1" to="out_1_n4" departLane="best" departSpeed="max"/>
    <trip id="veh96" depart="480.00" from="in_n4_1" to="out_1_n5" departLane="best" departSpeed="max"/>
    <trip id="veh97" depart="485.00" from="in_n4_1" to="out_1_n2" departLane="best" departSpeed="max"/>
    <trip id="veh98" depart="490.00" from="in_n5_1" to="out_1_n3" departLane="best" departSpeed="max"/>
    <trip id="veh99" depart="495.00" from="in_n4_1" to="out_1_n5" departLane="best" departSpeed="max"/>
    <trip id="veh100" depart="500.00" from="in_n2_1" to="out_1_n4" departLane="best" departSpeed="max"/>
    <trip id="veh101" depart="505.00" from="in_n3_1" to="out_1_n4" departLane="best" departSpeed="max"/>
    <trip id="veh102" depart="510.00" from="in_n4_1" to="out_1_n2" departLane="best" departSpeed="max"/>
    <trip id="veh103" depart="515.00" from="in_n4_1" to="out_1_n3" departLane="best" departSpeed="max"/>
    <trip id="veh104" depart="520.00" from="in_n3_1" to="out_1_n5" departLane="best" departSpeed="max"/>
    <trip id="veh105" depart="525.00" from="in_n5_1" to="out_1_n2" departLane="best" departSpeed="max"/>
    <trip id="veh106" depart="530.00" from="in_n2_1" to="out_1_n5" departLane="best" departSpeed="max"/>
    <trip id="veh107" depart="535.00" from="in_n4_1" to="out_1_n3" departLane="best" departSpeed="max"/>
    <trip id="veh108" depart="540.00" from="in_n3_1" to="out_1_n2" departLane="best" departSpeed="max"/>
    <trip id="veh109" depart="545.00" from="in_n2_1" to="out_1_n5" departLane="best" departSpeed="max"/>
    <trip id="veh110" depart="550.00" from="in_n5_1" to="out_1_n4" departLane="best" departSpeed="max"/>
    <trip id="veh111" depart="555.00" from="in_n5_1" to="out_1_n4" departLane="best" departSpeed="max"/>
    <trip id="veh112" depart="560.00" from="in_n3_1" to="out_1_n5" departLane="best" departSpeed="max"/>
    <trip id="veh113" depart="565.00" from="in_n5_1" to="out_1_n2" departLane="best" departSpeed="max"/>
    <trip id="veh114" depart="570.00" from="in_n3_1" to="out_1_n4" departLane="best" departSpeed="max"/>
    <trip id="veh115" depart="575.00" from="in_n2_1" to="out_1_n5" departLane="best" departSpeed="max"/>
    <trip id="veh116" depart="580.00" from="in_n2_1" to="out_1_n4" departLane="best" departSpeed="max"/>
    <trip id="veh117" depart="585.00" from="in_n3_1" to="out_1_n5" departLane="best" departSpeed="max"/>
    <trip id="veh118" depart="590.00" from="in_n5_1" to="out_1_n3" departLane="best" departSpeed="max"/>
    <trip id="veh119" depart="595.00" from="in_n5_1" to="out_1_n2" departLane="best" departSpeed="max"/>
    <trip id="veh120" depart="600.00" from="in_n2_1" to="out_1_n5" departLane="best" departSpeed="max"/>
    <trip id="veh121" depart="605.00" from="in_n5_1" to="out_1_n2" departLane="best" departSpeed="max"/>
    <trip id="veh122" depart="610.00" from="in_n3_1" to="out_1_n5" departLane="best" departSpeed="max"/>
    <trip id="veh123" depart="615.00" from="in_n5_1" to="out_1_n3" departLane="best" departSpeed="max"/>
    <trip id="veh124" depart="620.00" from="in_n4_1" to="out_1_n3" departLane="best" departSpeed="max"/>
    <trip id="veh125" depart="625.00" from="in_n5_1" to="out_1_n4" departLane="best" departSpeed="max"/>
    <trip id="veh126" depart="630.00" from="in_n5_1" to="out_1_n2" departLane="best" departSpeed="max"/>
    <trip id="veh127" depart="635.00" from="in_n5_1" to="out_1_n2" departLane="best" departSpeed="max"/>
    <trip id="veh128" depart="640.00" from="in_n5_1" to="out_1_n3" departLane="best" departSpeed="max"/>
    <trip id="veh129" depart="645.00" from="in_n2_1" to="out_1_n3" departLane="best" departSpeed="max"/>
    <trip id="veh130" depart="650.00" from="in_n4_1" to="out_1_n3" departLane="best" departSpeed="max"/>
    <trip id="veh131" depart="655.00" from="in_n3_1" to="out_1_n4" departLane="best" departSpeed="max"/>
    <trip id="veh132" depart="660.00" from="in_n3_1" to="out_1_n4" departLane="best" departSpeed="max"/>
    <trip id="veh133" depart="665.00" from="in_n2_1" to="out_1_n5" departLane="best" departSpeed="max"/>
    <trip id="veh134" depart="670.00" from="in_n3_1" to="out_1_n2" departLane="best" departSpeed="max"/>
    <trip id="veh135" depart="675.00" from="in_n4_1" to="out_1_n3" departLane="best" departSpeed="max"/>
    <trip id="veh136" depart="680.00" from="in_n3_1" to="out_1_n5" departLane="best" departSpeed="max"/>
    <trip id="veh137" depart="685.00" from="in_n4_1" to="out_1_n3" departLane="best" departSpeed="max"/>
    <trip id="veh138" depart="690.00" from="in_n2_1" to="out_1_n3" departLane="best" departSpeed="max"/>
    <trip id="veh139" depart="695.00" from="in_n5_1" to="out_1_n4" departLane="best" departSpeed="max"/>
    <trip id="veh140" depart="700.00" from="in_n5_1" to="out_1_n4" departLane="best" departSpeed="max"/>
    <trip id="veh141" depart="705.00" from="in_n3_1" to="out_1_n4" departLane="best" departSpeed="max"/>
    <trip id="veh142" depart="710.00" from="in_n2_1" to="out_1_n3" departLane="best" departSpeed="max"/>
    <trip id="veh143" depart="715.00" from="in_n3_1" to="out_1_n4" departLane="best" departSpeed="max"/>
    <trip id="veh144" depart="720.00" from="in_n4_1" to="out_1_n3" departLane="best" departSpeed="max"/>
    <trip id="veh145" depart="725.00" from="in_n3_1" to="out_1_n2" departLane="best" departSpeed="max"/>
    <trip id="veh146" depart="730.00" from="in_n3_1" to="out_1_n5" departLane="best" departSpeed="max"/>
    <trip id="veh147" depart="735.00" from="in_n5_1" to="out_1_n2" departLane="best" departSpeed="max"/>
    <trip id="veh148" depart="740.00" from="in_n2_1" to="out_1_n4" departLane="best" departSpeed="max"/>
    <trip id="veh149" depart="745.00" from="in_n4_1" to="out_1_n3" departLane="best" departSpeed="max"/>
    <trip id="veh150" depart="750.00" from="in_n4_1" to="out_1_n2" departLane="best" departSpeed="max"/>
    <trip id="veh151" depart="755.00" from="in_n2_1" to="out_1_n3" departLane="best" departSpeed="max"/>
    <trip id="veh152" depart="760.00" from="in_n5_1" to="out_1_n2" departLane="best" departSpeed="max"/>
    <trip id="veh153" depart="765.00" from="in_n3_1" to="out_1_n4" departLane="best" departSpeed="max"/>
    <trip id="veh154" depart="770.00" from="in_n2_1" to="out_1_n4" departLane="best" departSpeed="max"/>
    <trip id="veh155" depart="775.00" from="in_n3_1" to="out_1_n2" departLane="best" departSpeed="max"/>
    <trip id="veh156" depart="780.00" from="in_n4_1" to="out_1_n2" departLane="best" departSpeed="max"/>
    <trip id="veh157" depart="785.00" from="in_n2_1" to="out_1_n3" departLane="best" departSpeed="max"/>
    <trip id="veh158" depart="790.00" from="in_n2_1" to="out_1_n5" departLane="best" departSpeed="max"/>
    <trip id="veh159" depart="795.00" from="in_n4_1" to="out_1_n2" departLane="best" departSpeed="max"/>
    <trip id="veh160" depart="800.00" from="in_n2_1" to="out_1_n5" departLane="best" departSpeed="max"/>
    <trip id="veh161" depart="805.00" from="in_n3_1" to="out_1_n5" departLane="best" departSpeed="max"/>
    <trip id="veh162" depart="810.00" from="in_n4_1" to="out_1_n5" departLane="best" departSpeed="max"/>
    <trip id="veh163" depart="815.00" from="in_n4_1" to="out_1_n5" departLane="best" departSpeed="max"/>
    <trip id="veh164" depart="820.00" from="in_n5_1" to="out_1_n4" departLane="best" departSpeed="max"/>
    <trip id="veh165" depart="825.00" from="in_n5_1" to="out_1_n4" departLane="best" departSpeed="max"/>
    <trip id="veh166" depart="830.00" from="in_n5_1" to="out_1_n4" departLane="best" departSpeed="max"/>
    <trip id="veh167" depart="835.00" from="in_n2_1" to="out_1_n4" departLane="best" departSpeed="max"/>
    <trip id="veh168" depart="840.00" from="in_n5_1" to="out_1_n4" departLane="best" departSpeed="max"/>
    <trip id="veh169" depart="845.00" from="in_n4_1" to="out_1_n3" departLane="best" departSpeed="max"/>
    <trip id="veh170" depart="850.00" from="in_n2_1" to="out_1_n3" departLane="best" departSpeed="max"/>
    <trip id="veh171" depart="855.00" from="in_n4_1" to="out_1_n2" departLane="best" departSpeed="max"/>
    <trip id="veh172" depart="860.00" from="in_n2_1" to="out_1_n4" departLane="best" departSpeed="max"/>
    <trip id="veh173" depart="865.00" from="in_n4_1" to="out_1_n2" departLane="best" departSpeed="max"/>
    <trip id="veh174" depart="870.00" from="in_n3_1" to="out_1_n4" departLane="best" departSpeed="max"/>
    <trip id="veh175" depart="875.00" from="in_n3_1" to="out_1_n2" departLane="best" departSpeed="max"/>
    <trip id="veh176" depart="880.00" from="in_n3_1" to="out_1_n5" departLane="best" departSpeed="max"/>
    <trip id="veh177" depart="885.00" from="in_n3_1" to="out_1_n2" departLane="best" departSpeed="max"/>
    <trip id="veh178" depart="890.00" from="in_n3_1" to="out_1_n5" departLane="best" departSpeed="max"/>
    <trip id="veh179" depart="895.00" from="in_n3_1" to="out_1_n4" departLane="best" departSpeed="max"/>
    <trip id="veh180" depart="900.00" from="in_n3_1" to="out_1_n2" departLane="best" departSpeed="max"/>
    <trip id="veh181" depart="905.00" from="in_n3_1" to="out_1_n4" departLane="best" departSpeed="max"/>
    <trip id="veh182" depart="910.00" from="in_n3_1" to="out_1_n2" departLane="best" departSpeed="max"/>
    <trip id="veh183" depart="915.00" from="in_n3_1" to="out_1_n2" departLane="best" departSpeed="max"/>
    <trip id="veh184" depart="920.00" from="in_n4_1" to="out_1_n2" departLane="best" departSpeed="max"/>
    <trip id="veh185" depart="925.00" from="in_n3_1" to="out_1_n4" departLane="best" departSpeed="max"/>
    <trip id="veh186" depart="930.00" from="in_n2_1" to="out_1_n4" departLane="best" departSpeed="max"/>
    <trip id="veh187" depart="935.00" from="in_n2_1" to="out_1_n3" departLane="best" departSpeed="max"/>
    <trip id="veh188" depart="940.00" from="in_n2_1" to="out_1_n3" departLane="best" departSpeed="max"/>
    <trip id="veh189" depart="945.00" from="in_n2_1" to="out_1_n3" departLane="best" departSpeed="max"/>
    <trip id="veh190" depart="950.00" from="in_n5_1" to="out_1_n3" departLane="best" departSpeed="max"/>
    <trip id="veh191" depart="955.00" from="in_n3_1" to="out_1_n2" departLane="best" departSpeed="max"/>
    <trip id="veh192" depart="960.00" from="in_n2_1" to="out_1_n4" departLane="best" departSpeed="max"/>
    <trip id="veh193" depart="965.00" from="in_n5_1" to="out_1_n3" departLane="best" departSpeed="max"/>
    <trip id="veh194" depart="970.00" from="in_n4_1" to="out_1_n5" departLane="best" departSpeed="max"/>
    <trip id="veh195" depart="975.00" from="in_n4_1" to="out_1_n5" departLane="best" departSpeed="max"/>
    <trip id="veh196" depart="980.00" from="in_n5_1" to="out_1_n2" departLane="best" departSpeed="max"/>
    <trip id="veh197" depart="985.00" from="in_n2_1" to="out_1_n4" departLane="best" departSpeed="max"/>
    <trip id="veh198" depart="990.00" from="in_n4_1" to="out_1_n2" departLane="best" departSpeed="max"/>
    <trip id="veh199" depart="995.00" from="in_n4_1" to="out_1_n5" departLane="best" departSpeed="max"/>
    <trip id="veh200" depart="1000.00" from="in_n2_1" to="out_1_n4" departLane="best" departSpeed="max"/>
    <trip id="veh201" depart="1005.00" from="in_n4_1" to="out_1_n2" departLane="best" departSpeed="max"/>
    <trip id="veh202" depart="1010.00" from="in_n3_1" to="out_1_n4" departLane="best" departSpeed="max"/>
    <trip id="veh203" depart="1015.00" from="in_n5_1" to="out_1_n3" departLane="best" departSpeed="max"/>
    <trip id="veh204" depart="1020.00" from="in_n4_1" to="out_1_n2" departLane="best" departSpeed="max"/>
    <trip id="veh205" depart="1025.00" from="in_n2_1" to="out_1_n5" departLane="best" departSpeed="max"/>
    <trip id="veh206" depart="1030.00" from="in_n5_1" to="out_1_n4" departLane="best" departSpeed="max"/>
    <trip id="veh207" depart="1035.00" from="in_n2_1" to="out_1_n5" departLane="best" departSpeed="max"/>
    <trip id="veh208" depart="1040.00" from="in_n5_1" to="out_1_n3" departLane="best" departSpeed="max"/>
    <trip id="veh209" depart="1045.00" from="in_n4_1" to="out_1_n3" departLane="best" departSpeed="max"/>
    <trip id="veh210" depart="1050.00" from="in_n2_1" to="out_1_n5" departLane="best" departSpeed="max"/>
    <trip id="veh211" depart="1055.00" from="in_n4_1" to="out_1_n5" departLane="best" departSpeed="max"/>
    <trip id="veh212" depart="1060.00" from="in_n4_1" to="out_1_n3" departLane="best" departSpeed="max"/>
    <trip id="veh213" depart="1065.00" from="in_n4_1" to="out_1_n5" departLane="best" departSpeed="max"/>
    <trip id="veh214" depart="1070.00" from="in_n3_1" to="out_1_n5" departLane="best" departSpeed="max"/>
    <trip id="veh215" depart="1075.00" from="in_n4_1" to="out_1_n3" departLane="best" departSpeed="max"/>
    <trip id="veh216" depart="1080.00" from="in_n3_1" to="out_1_n4" departLane="best" departSpeed="max"/>
    <trip id="veh217" depart="1085.00" from="in_n3_1" to="out_1_n5" departLane="best" departSpeed="max"/>
    <trip id="veh218" depart="1090.00" from="in_n5_1" to="out_1_n2" departLane="best" departSpeed="max"/>
    <trip id="veh219" depart="1095.00" from="in_n5_1" to="out_1_n2" departLane="best" departSpeed="max"/>
    <trip id="veh220" depart="1100.00" from="in_n3_1" to="out_1_n4" departLane="best" departSpeed="max"/>
    <trip id="veh221" depart="1105.00" from="in_n3_1" to="out_1_n2" departLane="best" departSpeed="max"/>
    <trip id="veh222" depart="1110.00" from="in_n5_1" to="out_1_n2" departLane="best" departSpeed="max"/>
    <trip id="veh223" depart="1115.00" from="in_n2_1" to="out_1_n5" departLane="best" departSpeed="max"/>
    <trip id="veh224" depart="1120.00" from="in_n3_1" to="out_1_n5" departLane="best" departSpeed="max"/>
    <trip id="veh225" depart="1125.00" from="in_n4_1" to="out_1_n3" departLane="best" departSpeed="max"/>
    <trip id="veh226" depart="1130.00" from="in_n2_1" to="out_1_n5" departLane="best" departSpeed="max"/>
    <trip id="veh227" depart="1135.00" from="in_n2_1" to="out_1_n4" departLane="best" departSpeed="max"/>
    <trip id="veh228" depart="1140.00" from="in_n3_1" to="out_1_n5" departLane="best" departSpeed="max"/>
    <trip id="veh229" depart="1145.00" from="in_n3_1" to="out_1_n5" departLane="best" departSpeed="max"/>
    <trip id="veh230" depart="1150.00" from="in_n4_1" to="out_1_n3" departLane="best" departSpeed="max"/>
    <trip id="veh231" depart="1155.00" from="in_n4_1" to="out_1_n3" departLane="best" departSpeed="max"/>
    <trip id="veh232" depart="1160.00" from="in_n4_1" to="out_1_n3" departLane="best" departSpeed="max"/>
    <trip id="veh233" depart="1165.00" from="in_n4_1" to="out_1_n3" departLane="best" departSpeed="max"/>
    <trip id="veh234" depart="1170.00" from="in_n4_1" to="out_1_n3" departLane="best" departSpeed="max"/>
    <trip id="veh235" depart="1175.00" from="in_n3_1" to="out_1_n2" departLane="best" departSpeed="max"/>
    <trip id="veh236" depart="1180.00" from="in_n4_1" to="out_1_n5" departLane="best" departSpeed="max"/>
    <trip id="veh237" depart="1185.00" from="in_n3_1" to="out_1_n4" departLane="best" departSpeed="max"/>
    <trip id="veh238" depart="1190.00" from="in_n5_1" to="out_1_n4" departLane="best" departSpeed="max"/>
    <trip id="veh239" depart="1195.00" from="in_n3_1" to="out_1_n2" departLane="best" departSpeed="max"/>
    <trip id="veh240" depart="1200.00" from="in_n4_1" to="out_1_n3" departLane="best" departSpeed="max"/>
    <trip id="veh241" depart="1205.00" from="in_n5_1" to="out_1_n4" departLane="best" departSpeed="max"/>
    <trip id="veh242" depart="1210.00" from="in_n4_1" to="out_1_n2" departLane="best" departSpeed="max"/>
    <trip id="veh243" depart="1215.00" from="in_n5_1" to="out_1_n3" departLane="best" departSpeed="max"/>
    <trip id="veh244" depart="1220.00" from="in_n5_1" to="out_1_n4" departLane="best" departSpeed="max"/>
    <trip id="veh245" depart="1225.00" from="in_n5_1" to="out_1_n3" departLane="best" departSpeed="max"/>
    <trip id="veh246" depart="1230.00" from="in_n5_1" to="out_1_n3" departLane="best" departSpeed="max"/>
    <trip id="veh247" depart="1235.00" from="in_n2_1" to="out_1_n4" departLane="best" departSpeed="max"/>
    <trip id="veh248" depart="1240.00" from="in_n4_1" to="out_1_n3" departLane="best" departSpeed="max"/>
    <trip id="veh249" depart="1245.00" from="in_n5_1" to="out_1_n2" departLane="best" departSpeed="max"/>
    <trip id="veh250" depart="1250.00" from="in_n5_1" to="out_1_n4" departLane="best" departSpeed="max"/>
    <trip id="veh251" depart="1255.00" from="in_n5_1" to="out_1_n2" departLane="best" departSpeed="max"/>
    <trip id="veh252" depart="1260.00" from="in_n4_1" to="out_1_n3" departLane="best" departSpeed="max"/>
    <trip id="veh253" depart="1265.00" from="in_n3_1" to="out_1_n5" departLane="best" departSpeed="max"/>
    <trip id="veh254" depart="1270.00" from="in_n5_1" to="out_1_n3" departLane="best" departSpeed="max"/>
    <trip id="veh255" depart="1275.00" from="in_n4_1" to="out_1_n5" departLane="best" departSpeed="max"/>
    <trip id="veh256" depart="1280.00" from="in_n4_1" to="out_1_n2" departLane="best" departSpeed="max"/>
    <trip id="veh257" depart="1285.00" from="in_n2_1" to="out_1_n3" departLane="best" departSpeed="max"/>
    <trip id="veh258" depart="1290.00" from="in_n4_1" to="out_1_n3" departLane="best" departSpeed="max"/>
    <trip id="veh259" depart="1295.00" from="in_n2_1" to="out_1_n4" departLane="best" departSpeed="max"/>
    <trip id="veh260" depart="1300.00" from="in_n4_1" to="out_1_n3" departLane="best" departSpeed="max"/>
    <trip id="veh261" depart="1305.00" from="in_n4_1" to="out_1_n5" departLane="best" departSpeed="max"/>
    <trip id="veh262" depart="1310.00" from="in_n5_1" to="out_1_n4" departLane="best" departSpeed="max"/>
    <trip id="veh263" depart="1315.00" from="in_n4_1" to="out_1_n5" departLane="best" departSpeed="max"/>
    <trip id="veh264" depart="1320.00" from="in_n3_1" to="out_1_n4" departLane="best" departSpeed="max"/>
    <trip id="veh265" depart="1325.00" from="in_n4_1" to="out_1_n5" departLane="best" departSpeed="max"/>
    <trip id="veh266" depart="1330.00" from="in_n5_1" to="out_1_n2" departLane="best" departSpeed="max"/>
    <trip id="veh267" depart="1335.00" from="in_n2_1" to="out_1_n3" departLane="best" departSpeed="max"/>
    <trip id="veh268" depart="1340.00" from="in_n3_1" to="out_1_n2" departLane="best" departSpeed="max"/>
    <trip id="veh269" depart="1345.00" from="in_n5_1" to="out_1_n4" departLane="best" departSpeed="max"/>
    <trip id="veh270" depart="1350.00" from="in_n3_1" to="out_1_n2" departLane="best" departSpeed="max"/>
    <trip id="veh271" depart="1355.00" from="in_n2_1" to="out_1_n3" departLane="best" departSpeed="max"/>
    <trip id="veh272" depart="1360.00" from="in_n2_1" to="out_1_n5" departLane="best" departSpeed="max"/>
    <trip id="veh273" depart="1365.00" from="in_n5_1" to="out_1_n4" departLane="best" departSpeed="max"/>
    <trip id="veh274" depart="1370.00" from="in_n4_1" to="out_1_n3" departLane="best" departSpeed="max"/>
    <trip id="veh275" depart="1375.00" from="in_n2_1" to="out_1_n5" departLane="best" departSpeed="max"/>
    <trip id="veh276" depart="1380.00" from="in_n3_1" to="out_1_n4" departLane="best" departSpeed="max"/>
    <trip id="veh277" depart="1385.00" from="in_n5_1" to="out_1_n2" departLane="best" departSpeed="max"/>
    <trip id="veh278" depart="1390.00" from="in_n3_1" to="out_1_n2" departLane="best" departSpeed="max"/>
    <trip id="veh279" depart="1395.00" from="in_n4_1" to="out_1_n5" departLane="best" departSpeed="max"/>