<connections>
    <connection from="in_n2_1" to="out_1_n3" fromLane="0" toLane="0" tl="0"/>
    <connection from="in_n2_1" to="out_1_n5" fromLane="0" toLane="0" tl="1"/>
    <connection from="in_n2_1" to="out_1_n4" fromLane="0" toLane="0" tl="2"/>

    <connection from="in_n3_1" to="out_1_n4" fromLane="0" toLane="0" tl="3"/>
    <connection from="in_n3_1" to="out_1_n5" fromLane="0" toLane="0" tl="4"/>
    <connection from="in_n3_1" to="out_1_n2" fromLane="0" toLane="0" tl="5"/>

    <connection from="in_n4_1" to="out_1_n5" fromLane="0" toLane="0" tl="6"/>
    <connection from="in_n4_1" to="out_1_n2" fromLane="0" toLane="0" tl="7"/>
    <connection from="in_n4_1" to="out_1_n3" fromLane="0" toLane="0" tl="8"/>

    <connection from="in_n5_1" to="out_1_n2" fromLane="0" toLane="0" tl="9"/>
    <connection from="in_n5_1" to="out_1_n3" fromLane="0" toLane="0" tl="10"/>
    <connection from="in_n5_1" to="out_1_n4" fromLane="0" toLane="0" tl="11"/>
</connections>