<?xml version="1.0" encoding="UTF-8"?>

<!-- generated on 2025-06-10 16:46:24 by Eclipse SUMO netconvert Version 1.23.1
<netconvertConfiguration xmlns:xsi="http://www.w3.org/2001/XMLSchema-instance" xsi:noNamespaceSchemaLocation="http://sumo.dlr.de/xsd/netconvertConfiguration.xsd">

    <input>
        <node-files value="stopInt.nod.xml"/>
        <edge-files value="stopInt.edg.xml"/>
        <connection-files value="stopInt.con.xml"/>
    </input>

    <output>
        <output-file value="stop_intersection.net.xml"/>
        <plain-output-prefix value="check"/>
    </output>

</netconvertConfiguration>
-->

<tlLogics version="1.20" xmlns:xsi="http://www.w3.org/2001/XMLSchema-instance" xsi:noNamespaceSchemaLocation="http://sumo.dlr.de/xsd/tllogic_file.xsd">
</tlLogics>
