<?xml version="1.0" encoding="UTF-8"?>

<!-- generated on 2025-06-10 16:46:24 by Eclipse SUMO netconvert Version 1.23.1
<netconvertConfiguration xmlns:xsi="http://www.w3.org/2001/XMLSchema-instance" xsi:noNamespaceSchemaLocation="http://sumo.dlr.de/xsd/netconvertConfiguration.xsd">

    <input>
        <node-files value="stopInt.nod.xml"/>
        <edge-files value="stopInt.edg.xml"/>
        <connection-files value="stopInt.con.xml"/>
    </input>

    <output>
        <output-file value="stop_intersection.net.xml"/>
        <plain-output-prefix value="check"/>
    </output>

</netconvertConfiguration>
-->

<nodes version="1.20" xmlns:xsi="http://www.w3.org/2001/XMLSchema-instance" xsi:noNamespaceSchemaLocation="http://sumo.dlr.de/xsd/nodes_file.xsd">
    <location netOffset="100.00,100.00" convBoundary="0.00,0.00,200.00,200.00" origBoundary="-100.00,-100.00,100.00,100.00" projParameter="!"/>

    <node id="n1" x="100.00" y="100.00" type="priority"/>
    <node id="n2" x="100.00" y="200.00" type="priority"/>
    <node id="n3" x="100.00" y="0.00" type="priority"/>
    <node id="n4" x="0.00" y="100.00" type="priority"/>
    <node id="n5" x="200.00" y="100.00" type="priority"/>
</nodes>
