<?xml version="1.0" encoding="UTF-8"?>

<!-- generated on 2025-06-10 16:46:24 by Eclipse SUMO netconvert Version 1.23.1
<netconvertConfiguration xmlns:xsi="http://www.w3.org/2001/XMLSchema-instance" xsi:noNamespaceSchemaLocation="http://sumo.dlr.de/xsd/netconvertConfiguration.xsd">

    <input>
        <node-files value="stopInt.nod.xml"/>
        <edge-files value="stopInt.edg.xml"/>
        <connection-files value="stopInt.con.xml"/>
    </input>

    <output>
        <output-file value="stop_intersection.net.xml"/>
        <plain-output-prefix value="check"/>
    </output>

</netconvertConfiguration>
-->

<edges version="1.20" xmlns:xsi="http://www.w3.org/2001/XMLSchema-instance" xsi:noNamespaceSchemaLocation="http://sumo.dlr.de/xsd/edges_file.xsd">
    <edge id="in_n2_1" from="n2" to="n1" priority="0" numLanes="1" speed="13.90"/>
    <edge id="in_n3_1" from="n3" to="n1" priority="0" numLanes="1" speed="13.90"/>
    <edge id="in_n4_1" from="n4" to="n1" priority="0" numLanes="1" speed="13.90"/>
    <edge id="in_n5_1" from="n5" to="n1" priority="0" numLanes="1" speed="13.90"/>
    <edge id="out_n1_n2" from="n1" to="n2" priority="0" numLanes="1" speed="13.90"/>
    <edge id="out_n1_n3" from="n1" to="n3" priority="0" numLanes="1" speed="13.90"/>
    <edge id="out_n1_n4" from="n1" to="n4" priority="0" numLanes="1" speed="13.90"/>
    <edge id="out_n1_n5" from="n1" to="n5" priority="0" numLanes="1" speed="13.90"/>
</edges>
