<additional>
    <stopSign lane="in_n2_1_0" startPos="20" endPos="25"/>
    <stopSign lane="in_n3_1_0" startPos="20" endPos="25"/>
    <stopSign lane="in_n4_1_0" startPos="20" endPos="25"/>
    <stopSign lane="in_n5_1_0" startPos="20" endPos="25"/>
</additional>