<additional>
    <stopSign lane="in_n2_1_0" startPos="0" endPos="5"/>
    <stopSign lane="in_n3_1_0" startPos="0" endPos="5"/>
    <stopSign lane="in_n4_1_0" startPos="0" endPos="5"/>
    <stopSign lane="in_n5_1_0" startPos="0" endPos="5"/>
</additional>