<?xml version="1.0" encoding="UTF-8"?>

<!-- generated on 2025-06-18 13:55:25 by Eclipse SUMO netconvert Version 1.23.1
<netconvertConfiguration xmlns:xsi="http://www.w3.org/2001/XMLSchema-instance" xsi:noNamespaceSchemaLocation="http://sumo.dlr.de/xsd/netconvertConfiguration.xsd">

    <input>
        <node-files value="tjInt.nod.xml"/>
        <edge-files value="tjInt.edg.xml"/>
        <connection-files value="tjInt.con.xml"/>
    </input>

    <output>
        <output-file value="t_junction.net.xml"/>
    </output>

</netconvertConfiguration>
-->

<net version="1.20" junctionCornerDetail="5" limitTurnSpeed="5.50" xmlns:xsi="http://www.w3.org/2001/XMLSchema-instance" xsi:noNamespaceSchemaLocation="http://sumo.dlr.de/xsd/net_file.xsd">

    <location netOffset="100.00,0.00" convBoundary="0.00,0.00,200.00,100.00" origBoundary="-100.00,0.00,100.00,100.00" projParameter="!"/>

    <edge id=":J1_0" function="internal">
        <lane id=":J1_0_0" index="0" speed="6.51" length="9.03" shape="98.40,7.20 98.05,4.75 97.00,3.00 95.25,1.95 92.80,1.60"/>
    </edge>
    <edge id=":J1_1" function="internal">
        <lane id=":J1_1_0" index="0" speed="8.00" length="14.19" shape="98.40,7.20 98.95,3.35 100.60,0.60 103.35,-1.05 107.20,-1.60"/>
    </edge>
    <edge id=":J1_2" function="internal">
        <lane id=":J1_2_0" index="0" speed="6.51" length="9.03" shape="107.20,1.60 104.75,1.95 103.00,3.00 101.95,4.75 101.60,7.20"/>
    </edge>
    <edge id=":J1_3" function="internal">
        <lane id=":J1_3_0" index="0" speed="13.90" length="14.40" shape="107.20,1.60 92.80,1.60"/>
    </edge>
    <edge id=":J1_4" function="internal">
        <lane id=":J1_4_0" index="0" speed="13.90" length="14.40" shape="92.80,-1.60 107.20,-1.60"/>
    </edge>
    <edge id=":J1_5" function="internal">
        <lane id=":J1_5_0" index="0" speed="8.00" length="4.07" shape="92.80,-1.60 96.65,-1.05 96.80,-0.96"/>
    </edge>
    <edge id=":J1_6" function="internal">
        <lane id=":J1_6_0" index="0" speed="8.00" length="10.13" shape="96.80,-0.96 99.40,0.60 101.05,3.35 101.60,7.20"/>
    </edge>
    <edge id=":nEast_0" function="internal">
        <lane id=":nEast_0_0" index="0" speed="3.65" length="4.67" shape="200.00,-1.60 201.20,-0.80 201.60,0.00 201.20,0.80 200.00,1.60"/>
    </edge>
    <edge id=":nNorth_0" function="internal">
        <lane id=":nNorth_0_0" index="0" speed="3.65" length="4.67" shape="101.60,100.00 100.80,101.20 100.00,101.60 99.20,101.20 98.40,100.00"/>
    </edge>
    <edge id=":nWest_0" function="internal">
        <lane id=":nWest_0_0" index="0" speed="3.65" length="4.67" shape="0.00,1.60 -1.20,0.80 -1.60,0.00 -1.20,-0.80 0.00,-1.60"/>
    </edge>

    <edge id="in_nEast_J1" from="nEast" to="J1" priority="3">
        <lane id="in_nEast_J1_0" index="0" speed="13.90" length="92.80" shape="200.00,1.60 107.20,1.60"/>
    </edge>
    <edge id="in_nNorth_J1" from="nNorth" to="J1" priority="1">
        <lane id="in_nNorth_J1_0" index="0" speed="13.90" length="92.80" shape="98.40,100.00 98.40,7.20"/>
    </edge>
    <edge id="in_nWest_J1" from="nWest" to="J1" priority="3">
        <lane id="in_nWest_J1_0" index="0" speed="13.90" length="92.80" shape="0.00,-1.60 92.80,-1.60"/>
    </edge>
    <edge id="out_J1_nEast" from="J1" to="nEast" priority="3">
        <lane id="out_J1_nEast_0" index="0" speed="13.90" length="92.80" shape="107.20,-1.60 200.00,-1.60"/>
    </edge>
    <edge id="out_J1_nNorth" from="J1" to="nNorth" priority="1">
        <lane id="out_J1_nNorth_0" index="0" speed="13.90" length="92.80" shape="101.60,7.20 101.60,100.00"/>
    </edge>
    <edge id="out_J1_nWest" from="J1" to="nWest" priority="3">
        <lane id="out_J1_nWest_0" index="0" speed="13.90" length="92.80" shape="92.80,1.60 0.00,1.60"/>
    </edge>

    <junction id="J1" type="priority" x="100.00" y="0.00" incLanes="in_nNorth_J1_0 in_nEast_J1_0 in_nWest_J1_0" intLanes=":J1_0_0 :J1_1_0 :J1_2_0 :J1_3_0 :J1_4_0 :J1_6_0" shape="96.80,7.20 103.20,7.20 103.64,4.98 104.20,4.20 104.98,3.64 105.98,3.31 107.20,3.20 107.20,-3.20 92.80,-3.20 92.80,3.20 95.02,3.64 95.80,4.20 96.36,4.98 96.69,5.98">
        <request index="0" response="001000" foes="001000" cont="0"/>
        <request index="1" response="111000" foes="111000" cont="0"/>
        <request index="2" response="000000" foes="100000" cont="0"/>
        <request index="3" response="000000" foes="100011" cont="0"/>
        <request index="4" response="000000" foes="000010" cont="0"/>
        <request index="5" response="001100" foes="001110" cont="1"/>
    </junction>
    <junction id="nEast" type="priority" x="200.00" y="0.00" incLanes="out_J1_nEast_0" intLanes=":nEast_0_0" shape="200.00,0.00 200.00,-3.20 200.00,0.00">
        <request index="0" response="0" foes="0" cont="0"/>
    </junction>
    <junction id="nNorth" type="priority" x="100.00" y="100.00" incLanes="out_J1_nNorth_0" intLanes=":nNorth_0_0" shape="100.00,100.00 103.20,100.00 100.00,100.00">
        <request index="0" response="0" foes="0" cont="0"/>
    </junction>
    <junction id="nWest" type="priority" x="0.00" y="0.00" incLanes="out_J1_nWest_0" intLanes=":nWest_0_0" shape="0.00,0.00 0.00,3.20 0.00,0.00">
        <request index="0" response="0" foes="0" cont="0"/>
    </junction>

    <junction id=":J1_6_0" type="internal" x="96.80" y="-0.96" incLanes=":J1_5_0 in_nEast_J1_0" intLanes=":J1_1_0 :J1_2_0 :J1_3_0"/>

    <connection from="in_nEast_J1" to="out_J1_nNorth" fromLane="0" toLane="0" via=":J1_2_0" dir="r" state="M"/>
    <connection from="in_nEast_J1" to="out_J1_nWest" fromLane="0" toLane="0" via=":J1_3_0" dir="s" state="M"/>
    <connection from="in_nNorth_J1" to="out_J1_nWest" fromLane="0" toLane="0" via=":J1_0_0" dir="r" state="m"/>
    <connection from="in_nNorth_J1" to="out_J1_nEast" fromLane="0" toLane="0" via=":J1_1_0" dir="l" state="m"/>
    <connection from="in_nWest_J1" to="out_J1_nEast" fromLane="0" toLane="0" via=":J1_4_0" dir="s" state="M"/>
    <connection from="in_nWest_J1" to="out_J1_nNorth" fromLane="0" toLane="0" via=":J1_5_0" dir="l" state="m"/>
    <connection from="out_J1_nEast" to="in_nEast_J1" fromLane="0" toLane="0" via=":nEast_0_0" dir="t" state="M"/>
    <connection from="out_J1_nNorth" to="in_nNorth_J1" fromLane="0" toLane="0" via=":nNorth_0_0" dir="t" state="M"/>
    <connection from="out_J1_nWest" to="in_nWest_J1" fromLane="0" toLane="0" via=":nWest_0_0" dir="t" state="M"/>

    <connection from=":J1_0" to="out_J1_nWest" fromLane="0" toLane="0" dir="r" state="M"/>
    <connection from=":J1_1" to="out_J1_nEast" fromLane="0" toLane="0" dir="l" state="M"/>
    <connection from=":J1_2" to="out_J1_nNorth" fromLane="0" toLane="0" dir="r" state="M"/>
    <connection from=":J1_3" to="out_J1_nWest" fromLane="0" toLane="0" dir="s" state="M"/>
    <connection from=":J1_4" to="out_J1_nEast" fromLane="0" toLane="0" dir="s" state="M"/>
    <connection from=":J1_5" to="out_J1_nNorth" fromLane="0" toLane="0" via=":J1_6_0" dir="l" state="m"/>
    <connection from=":J1_6" to="out_J1_nNorth" fromLane="0" toLane="0" dir="l" state="M"/>
    <connection from=":nEast_0" to="in_nEast_J1" fromLane="0" toLane="0" dir="t" state="M"/>
    <connection from=":nNorth_0" to="in_nNorth_J1" fromLane="0" toLane="0" dir="t" state="M"/>
    <connection from=":nWest_0" to="in_nWest_J1" fromLane="0" toLane="0" dir="t" state="M"/>

</net>
