<?xml version="1.0" encoding="UTF-8"?>

<!-- generated on 2025-06-18 14:26:32.544745 by randomTrips.py v1_23_1+0000-676720d13f6
<configuration>
    <net-file value="tl_intersection.net.xml"/>
    <output-trip-file value="tl_intersection.rou.xml"/>
    <prefix value="veh"/>
    <trip-attributes value="departLane=&quot;best&quot; departSpeed=&quot;max&quot;"/>
    <seed value="13"/>
    <min-distance value="20.0"/>
    <period value="3.0"/>
</configuration>
-->

<routes xmlns:xsi="http://www.w3.org/2001/XMLSchema-instance" xsi:noNamespaceSchemaLocation="http://sumo.dlr.de/xsd/routes_file.xsd">
    <trip id="veh0" depart="0.00" from="in_n3_1" to="out_1_n4" departLane="best" departSpeed="max"/>
    <trip id="veh1" depart="3.00" from="in_n4_1" to="out_1_n5" departLane="best" departSpeed="max"/>
    <trip id="veh2" depart="6.00" from="in_n4_1" to="out_1_n2" departLane="best" departSpeed="max"/>
    <trip id="veh3" depart="9.00" from="in_n4_1" to="out_1_n2" departLane="best" departSpeed="max"/>
    <trip id="veh4" depart="12.00" from="in_n5_1" to="out_1_n4" departLane="best" departSpeed="max"/>
    <trip id="veh5" depart="15.00" from="in_n2_1" to="out_1_n3" departLane="best" departSpeed="max"/>
    <trip id="veh6" depart="18.00" from="in_n2_1" to="out_1_n5" departLane="best" departSpeed="max"/>
    <trip id="veh7" depart="21.00" from="in_n5_1" to="out_1_n4" departLane="best" departSpeed="max"/>
    <trip id="veh8" depart="24.00" from="in_n3_1" to="out_1_n5" departLane="best" departSpeed="max"/>
    <trip id="veh9" depart="27.00" from="in_n3_1" to="out_1_n5" departLane="best" departSpeed="max"/>
    <trip id="veh10" depart="30.00" from="in_n4_1" to="out_1_n3" departLane="best" departSpeed="max"/>
    <trip id="veh11" depart="33.00" from="in_n3_1" to="out_1_n2" departLane="best" departSpeed="max"/>
    <trip id="veh12" depart="36.00" from="in_n5_1" to="out_1_n4" departLane="best" departSpeed="max"/>
    <trip id="veh13" depart="39.00" from="in_n2_1" to="out_1_n4" departLane="best" departSpeed="max"/>
    <trip id="veh14" depart="42.00" from="in_n3_1" to="out_1_n2" departLane="best" departSpeed="max"/>
    <trip id="veh15" depart="45.00" from="in_n2_1" to="out_1_n4" departLane="best" departSpeed="max"/>
    <trip id="veh16" depart="48.00" from="in_n4_1" to="out_1_n3" departLane="best" departSpeed="max"/>
    <trip id="veh17" depart="51.00" from="in_n2_1" to="out_1_n3" departLane="best" departSpeed="max"/>
    <trip id="veh18" depart="54.00" from="in_n2_1" to="out_1_n3" departLane="best" departSpeed="max"/>
    <trip id="veh19" depart="57.00" from="in_n2_1" to="out_1_n4" departLane="best" departSpeed="max"/>
    <trip id="veh20" depart="60.00" from="in_n5_1" to="out_1_n3" departLane="best" departSpeed="max"/>
    <trip id="veh21" depart="63.00" from="in_n4_1" to="out_1_n5" departLane="best" departSpeed="max"/>
    <trip id="veh22" depart="66.00" from="in_n4_1" to="out_1_n2" departLane="best" departSpeed="max"/>
    <trip id="veh23" depart="69.00" from="in_n3_1" to="out_1_n5" departLane="best" departSpeed="max"/>
    <trip id="veh24" depart="72.00" from="in_n2_1" to="out_1_n5" departLane="best" departSpeed="max"/>
    <trip id="veh25" depart="75.00" from="in_n3_1" to="out_1_n4" departLane="best" departSpeed="max"/>
    <trip id="veh26" depart="78.00" from="in_n2_1" to="out_1_n5" departLane="best" departSpeed="max"/>
    <trip id="veh27" depart="81.00" from="in_n2_1" to="out_1_n4" departLane="best" departSpeed="max"/>
    <trip id="veh28" depart="84.00" from="in_n3_1" to="out_1_n4" departLane="best" departSpeed="max"/>
    <trip id="veh29" depart="87.00" from="in_n2_1" to="out_1_n4" departLane="best" departSpeed="max"/>
    <trip id="veh30" depart="90.00" from="in_n2_1" to="out_1_n4" departLane="best" departSpeed="max"/>
    <trip id="veh31" depart="93.00" from="in_n2_1" to="out_1_n3" departLane="best" departSpeed="max"/>
    <trip id="veh32" depart="96.00" from="in_n3_1" to="out_1_n2" departLane="best" departSpeed="max"/>
    <trip id="veh33" depart="99.00" from="in_n2_1" to="out_1_n5" departLane="best" departSpeed="max"/>
    <trip id="veh34" depart="102.00" from="in_n2_1" to="out_1_n3" departLane="best" departSpeed="max"/>
    <trip id="veh35" depart="105.00" from="in_n3_1" to="out_1_n4" departLane="best" departSpeed="max"/>
    <trip id="veh36" depart="108.00" from="in_n2_1" to="out_1_n3" departLane="best" departSpeed="max"/>
    <trip id="veh37" depart="111.00" from="in_n3_1" to="out_1_n5" departLane="best" departSpeed="max"/>
    <trip id="veh38" depart="114.00" from="in_n2_1" to="out_1_n3" departLane="best" departSpeed="max"/>
    <trip id="veh39" depart="117.00" from="in_n3_1" to="out_1_n5" departLane="best" departSpeed="max"/>
    <trip id="veh40" depart="120.00" from="in_n4_1" to="out_1_n3" departLane="best" departSpeed="max"/>
    <trip id="veh41" depart="123.00" from="in_n4_1" to="out_1_n3" departLane="best" departSpeed="max"/>
    <trip id="veh42" depart="126.00" from="in_n2_1" to="out_1_n4" departLane="best" departSpeed="max"/>
    <trip id="veh43" depart="129.00" from="in_n5_1" to="out_1_n4" departLane="best" departSpeed="max"/>
    <trip id="veh44" depart="132.00" from="in_n3_1" to="out_1_n4" departLane="best" departSpeed="max"/>
    <trip id="veh45" depart="135.00" from="in_n5_1" to="out_1_n3" departLane="best" departSpeed="max"/>
    <trip id="veh46" depart="138.00" from="in_n4_1" to="out_1_n3" departLane="best" departSpeed="max"/>
    <trip id="veh47" depart="141.00" from="in_n2_1" to="out_1_n3" departLane="best" departSpeed="max"/>
    <trip id="veh48" depart="144.00" from="in_n2_1" to="out_1_n3" departLane="best" departSpeed="max"/>
    <trip id="veh49" depart="147.00" from="in_n2_1" to="out_1_n3" departLane="best" departSpeed="max"/>
    <trip id="veh50" depart="150.00" from="in_n2_1" to="out_1_n5" departLane="best" departSpeed="max"/>
    <trip id="veh51" depart="153.00" from="in_n4_1" to="out_1_n2" departLane="best" departSpeed="max"/>
    <trip id="veh52" depart="156.00" from="in_n5_1" to="out_1_n2" departLane="best" departSpeed="max"/>
    <trip id="veh53" depart="159.00" from="in_n3_1" to="out_1_n4" departLane="best" departSpeed="max"/>
    <trip id="veh54" depart="162.00" from="in_n3_1" to="out_1_n2" departLane="best" departSpeed="max"/>
    <trip id="veh55" depart="165.00" from="in_n5_1" to="out_1_n2" departLane="best" departSpeed="max"/>
    <trip id="veh56" depart="168.00" from="in_n5_1" to="out_1_n2" departLane="best" departSpeed="max"/>
    <trip id="veh57" depart="171.00" from="in_n2_1" to="out_1_n4" departLane="best" departSpeed="max"/>
    <trip id="veh58" depart="174.00" from="in_n2_1" to="out_1_n5" departLane="best" departSpeed="max"/>
    <trip id="veh59" depart="177.00" from="in_n3_1" to="out_1_n5" departLane="best" departSpeed="max"/>
    <trip id="veh60" depart="180.00" from="in_n4_1" to="out_1_n2" departLane="best" departSpeed="max"/>
    <trip id="veh61" depart="183.00" from="in_n5_1" to="out_1_n2" departLane="best" departSpeed="max"/>
    <trip id="veh62" depart="186.00" from="in_n3_1" to="out_1_n5" departLane="best" departSpeed="max"/>
    <trip id="veh63" depart="189.00" from="in_n2_1" to="out_1_n4" departLane="best" departSpeed="max"/>
    <trip id="veh64" depart="192.00" from="in_n4_1" to="out_1_n5" departLane="best" departSpeed="max"/>
    <trip id="veh65" depart="195.00" from="in_n4_1" to="out_1_n5" departLane="best" departSpeed="max"/>
    <trip id="veh66" depart="198.00" from="in_n3_1" to="out_1_n4" departLane="best" departSpeed="max"/>
    <trip id="veh67" depart="201.00" from="in_n4_1" to="out_1_n5" departLane="best" departSpeed="max"/>
    <trip id="veh68" depart="204.00" from="in_n5_1" to="out_1_n2" departLane="best" departSpeed="max"/>
    <trip id="veh69" depart="207.00" from="in_n2_1" to="out_1_n4" departLane="best" departSpeed="max"/>
    <trip id="veh70" depart="210.00" from="in_n5_1" to="out_1_n4" departLane="best" departSpeed="max"/>
    <trip id="veh71" depart="213.00" from="in_n3_1" to="out_1_n5" departLane="best" departSpeed="max"/>
    <trip id="veh72" depart="216.00" from="in_n3_1" to="out_1_n2" departLane="best" departSpeed="max"/>
    <trip id="veh73" depart="219.00" from="in_n4_1" to="out_1_n2" departLane="best" departSpeed="max"/>
    <trip id="veh74" depart="222.00" from="in_n4_1" to="out_1_n5" departLane="best" departSpeed="max"/>
    <trip id="veh75" depart="225.00" from="in_n3_1" to="out_1_n4" departLane="best" departSpeed="max"/>
    <trip id="veh76" depart="228.00" from="in_n5_1" to="out_1_n4" departLane="best" departSpeed="max"/>
    <trip id="veh77" depart="231.00" from="in_n3_1" to="out_1_n5" departLane="best" departSpeed="max"/>
    <trip id="veh78" depart="234.00" from="in_n2_1" to="out_1_n3" departLane="best" departSpeed="max"/>
    <trip id="veh79" depart="237.00" from="in_n5_1" to="out_1_n3" departLane="best" departSpeed="max"/>
    <trip id="veh80" depart="240.00" from="in_n3_1" to="out_1_n5" departLane="best" departSpeed="max"/>
    <trip id="veh81" depart="243.00" from="in_n3_1" to="out_1_n2" departLane="best" departSpeed="max"/>
    <trip id="veh82" depart="246.00" from="in_n2_1" to="out_1_n3" departLane="best" departSpeed="max"/>
    <trip id="veh83" depart="249.00" from="in_n3_1" to="out_1_n5" departLane="best" departSpeed="max"/>
    <trip id="veh84" depart="252.00" from="in_n2_1" to="out_1_n5" departLane="best" departSpeed="max"/>
    <trip id="veh85" depart="255.00" from="in_n5_1" to="out_1_n3" departLane="best" departSpeed="max"/>
    <trip id="veh86" depart="258.00" from="in_n3_1" to="out_1_n5" departLane="best" departSpeed="max"/>
    <trip id="veh87" depart="261.00" from="in_n4_1" to="out_1_n2" departLane="best" departSpeed="max"/>
    <trip id="veh88" depart="264.00" from="in_n2_1" to="out_1_n4" departLane="best" departSpeed="max"/>
    <trip id="veh89" depart="267.00" from="in_n2_1" to="out_1_n5" departLane="best" departSpeed="max"/>
    <trip id="veh90" depart="270.00" from="in_n4_1" to="out_1_n3" departLane="best" departSpeed="max"/>
    <trip id="veh91" depart="273.00" from="in_n5_1" to="out_1_n3" departLane="best" departSpeed="max"/>
    <trip id="veh92" depart="276.00" from="in_n4_1" to="out_1_n5" departLane="best" departSpeed="max"/>
    <trip id="veh93" depart="279.00" from="in_n2_1" to="out_1_n4" departLane="best" departSpeed="max"/>
    <trip id="veh94" depart="282.00" from="in_n4_1" to="out_1_n3" departLane="best" departSpeed="max"/>
    <trip id="veh95" depart="285.00" from="in_n5_1" to="out_1_n2" departLane="best" departSpeed="max"/>
    <trip id="veh96" depart="288.00" from="in_n5_1" to="out_1_n2" departLane="best" departSpeed="max"/>
    <trip id="veh97" depart="291.00" from="in_n5_1" to="out_1_n2" departLane="best" departSpeed="max"/>
    <trip id="veh98" depart="294.00" from="in_n2_1" to="out_1_n4" departLane="best" departSpeed="max"/>
    <trip id="veh99" depart="297.00" from="in_n5_1" to="out_1_n3" departLane="best" departSpeed="max"/>
    <trip id="veh100" depart="300.00" from="in_n3_1" to="out_1_n4" departLane="best" departSpeed="max"/>
    <trip id="veh101" depart="303.00" from="in_n2_1" to="out_1_n4" departLane="best" departSpeed="max"/>
    <trip id="veh102" depart="306.00" from="in_n2_1" to="out_1_n3" departLane="best" departSpeed="max"/>
    <trip id="veh103" depart="309.00" from="in_n5_1" to="out_1_n3" departLane="best" departSpeed="max"/>
    <trip id="veh104" depart="312.00" from="in_n4_1" to="out_1_n3" departLane="best" departSpeed="max"/>
    <trip id="veh105" depart="315.00" from="in_n5_1" to="out_1_n4" departLane="best" departSpeed="max"/>
    <trip id="veh106" depart="318.00" from="in_n2_1" to="out_1_n5" departLane="best" departSpeed="max"/>
    <trip id="veh107" depart="321.00" from="in_n5_1" to="out_1_n4" departLane="best" departSpeed="max"/>
    <trip id="veh108" depart="324.00" from="in_n4_1" to="out_1_n3" departLane="best" departSpeed="max"/>
    <trip id="veh109" depart="327.00" from="in_n2_1" to="out_1_n4" departLane="best" departSpeed="max"/>
    <trip id="veh110" depart="330.00" from="in_n4_1" to="out_1_n2" departLane="best" departSpeed="max"/>
    <trip id="veh111" depart="333.00" from="in_n4_1" to="out_1_n5" departLane="best" departSpeed="max"/>
    <trip id="veh112" depart="336.00" from="in_n5_1" to="out_1_n3" departLane="best" departSpeed="max"/>
    <trip id="veh113" depart="339.00" from="in_n5_1" to="out_1_n3" departLane="best" departSpeed="max"/>
    <trip id="veh114" depart="342.00" from="in_n4_1" to="out_1_n3" departLane="best" departSpeed="max"/>
    <trip id="veh115" depart="345.00" from="in_n5_1" to="out_1_n3" departLane="best" departSpeed="max"/>
    <trip id="veh116" depart="348.00" from="in_n5_1" to="out_1_n3" departLane="best" departSpeed="max"/>
    <trip id="veh117" depart="351.00" from="in_n4_1" to="out_1_n5" departLane="best" departSpeed="max"/>
    <trip id="veh118" depart="354.00" from="in_n4_1" to="out_1_n3" departLane="best" departSpeed="max"/>
    <trip id="veh119" depart="357.00" from="in_n2_1" to="out_1_n3" departLane="best" departSpeed="max"/>
    <trip id="veh120" depart="360.00" from="in_n3_1" to="out_1_n5" departLane="best" departSpeed="max"/>
    <trip id="veh121" depart="363.00" from="in_n2_1" to="out_1_n3" departLane="best" departSpeed="max"/>
    <trip id="veh122" depart="366.00" from="in_n3_1" to="out_1_n5" departLane="best" departSpeed="max"/>
    <trip id="veh123" depart="369.00" from="in_n2_1" to="out_1_n5" departLane="best" departSpeed="max"/>
    <trip id="veh124" depart="372.00" from="in_n3_1" to="out_1_n2" departLane="best" departSpeed="max"/>
    <trip id="veh125" depart="375.00" from="in_n5_1" to="out_1_n2" departLane="best" departSpeed="max"/>
    <trip id="veh126" depart="378.00" from="in_n2_1" to="out_1_n3" departLane="best" departSpeed="max"/>
    <trip id="veh127" depart="381.00" from="in_n2_1" to="out_1_n4" departLane="best" departSpeed="max"/>
    <trip id="veh128" depart="384.00" from="in_n4_1" to="out_1_n5" departLane="best" departSpeed="max"/>
    <trip id="veh129" depart="387.00" from="in_n4_1" to="out_1_n5" departLane="best" departSpeed="max"/>
    <trip id="veh130" depart="390.00" from="in_n5_1" to="out_1_n2" departLane="best" departSpeed="max"/>
    <trip id="veh131" depart="393.00" from="in_n2_1" to="out_1_n4" departLane="best" departSpeed="max"/>
    <trip id="veh132" depart="396.00" from="in_n5_1" to="out_1_n2" departLane="best" departSpeed="max"/>
    <trip id="veh133" depart="399.00" from="in_n4_1" to="out_1_n3" departLane="best" departSpeed="max"/>
    <trip id="veh134" depart="402.00" from="in_n3_1" to="out_1_n2" departLane="best" departSpeed="max"/>
    <trip id="veh135" depart="405.00" from="in_n3_1" to="out_1_n4" departLane="best" departSpeed="max"/>
    <trip id="veh136" depart="408.00" from="in_n4_1" to="out_1_n5" departLane="best" departSpeed="max"/>
    <trip id="veh137" depart="411.00" from="in_n3_1" to="out_1_n4" departLane="best" departSpeed="max"/>
    <trip id="veh138" depart="414.00" from="in_n2_1" to="out_1_n4" departLane="best" departSpeed="max"/>
    <trip id="veh139" depart="417.00" from="in_n2_1" to="out_1_n5" departLane="best" departSpeed="max"/>
    <trip id="veh140" depart="420.00" from="in_n5_1" to="out_1_n3" departLane="best" departSpeed="max"/>
    <trip id="veh141" depart="423.00" from="in_n5_1" to="out_1_n2" departLane="best" departSpeed="max"/>
    <trip id="veh142" depart="426.00" from="in_n3_1" to="out_1_n2" departLane="best" departSpeed="max"/>
    <trip id="veh143" depart="429.00" from="in_n3_1" to="out_1_n2" departLane="best" departSpeed="max"/>
    <trip id="veh144" depart="432.00" from="in_n3_1" to="out_1_n4" departLane="best" departSpeed="max"/>
    <trip id="veh145" depart="435.00" from="in_n2_1" to="out_1_n3" departLane="best" departSpeed="max"/>
    <trip id="veh146" depart="438.00" from="in_n3_1" to="out_1_n2" departLane="best" departSpeed="max"/>
    <trip id="veh147" depart="441.00" from="in_n5_1" to="out_1_n2" departLane="best" departSpeed="max"/>
    <trip id="veh148" depart="444.00" from="in_n2_1" to="out_1_n5" departLane="best" departSpeed="max"/>
    <trip id="veh149" depart="447.00" from="in_n5_1" to="out_1_n3" departLane="best" departSpeed="max"/>
    <trip id="veh150" depart="450.00" from="in_n3_1" to="out_1_n2" departLane="best" departSpeed="max"/>
    <trip id="veh151" depart="453.00" from="in_n2_1" to="out_1_n4" departLane="best" departSpeed="max"/>
    <trip id="veh152" depart="456.00" from="in_n5_1" to="out_1_n2" departLane="best" departSpeed="max"/>
    <trip id="veh153" depart="459.00" from="in_n3_1" to="out_1_n5" departLane="best" departSpeed="max"/>
    <trip id="veh154" depart="462.00" from="in_n4_1" to="out_1_n2" departLane="best" departSpeed="max"/>
    <trip id="veh155" depart="465.00" from="in_n4_1" to="out_1_n5" departLane="best" departSpeed="max"/>
    <trip id="veh156" depart="468.00" from="in_n5_1" to="out_1_n4" departLane="best" departSpeed="max"/>
    <trip id="veh157" depart="471.00" from="in_n5_1" to="out_1_n3" departLane="best" departSpeed="max"/>
    <trip id="veh158" depart="474.00" from="in_n4_1" to="out_1_n5" departLane="best" departSpeed="max"/>
    <trip id="veh159" depart="477.00" from="in_n4_1" to="out_1_n3" departLane="best" departSpeed="max"/>
    <trip id="veh160" depart="480.00" from="in_n2_1" to="out_1_n5" departLane="best" departSpeed="max"/>
    <trip id="veh161" depart="483.00" from="in_n3_1" to="out_1_n4" departLane="best" departSpeed="max"/>
    <trip id="veh162" depart="486.00" from="in_n3_1" to="out_1_n5" departLane="best" departSpeed="max"/>
    <trip id="veh163" depart="489.00" from="in_n5_1" to="out_1_n3" departLane="best" departSpeed="max"/>
    <trip id="veh164" depart="492.00" from="in_n4_1" to="out_1_n5" departLane="best" departSpeed="max"/>
    <trip id="veh165" depart="495.00" from="in_n5_1" to="out_1_n4" departLane="best" departSpeed="max"/>
    <trip id="veh166" depart="498.00" from="in_n4_1" to="out_1_n2" departLane="best" departSpeed="max"/>
    <trip id="veh167" depart="501.00" from="in_n2_1" to="out_1_n3" departLane="best" departSpeed="max"/>
    <trip id="veh168" depart="504.00" from="in_n3_1" to="out_1_n5" departLane="best" departSpeed="max"/>
    <trip id="veh169" depart="507.00" from="in_n2_1" to="out_1_n3" departLane="best" departSpeed="max"/>
    <trip id="veh170" depart="510.00" from="in_n4_1" to="out_1_n3" departLane="best" departSpeed="max"/>
    <trip id="veh171" depart="513.00" from="in_n5_1" to="out_1_n2" departLane="best" departSpeed="max"/>
    <trip id="veh172" depart="516.00" from="in_n5_1" to="out_1_n3" departLane="best" departSpeed="max"/>
    <trip id="veh173" depart="519.00" from="in_n4_1" to="out_1_n2" departLane="best" departSpeed="max"/>
    <trip id="veh174" depart="522.00" from="in_n3_1" to="out_1_n5" departLane="best" departSpeed="max"/>
    <trip id="veh175" depart="525.00" from="in_n3_1" to="out_1_n2" departLane="best" departSpeed="max"/>
    <trip id="veh176" depart="528.00" from="in_n4_1" to="out_1_n3" departLane="best" departSpeed="max"/>
    <trip id="veh177" depart="531.00" from="in_n3_1" to="out_1_n5" departLane="best" departSpeed="max"/>
    <trip id="veh178" depart="534.00" from="in_n2_1" to="out_1_n5" departLane="best" departSpeed="max"/>
    <trip id="veh179" depart="537.00" from="in_n2_1" to="out_1_n5" departLane="best" departSpeed="max"/>
    <trip id="veh180" depart="540.00" from="in_n4_1" to="out_1_n3" departLane="best" departSpeed="max"/>
    <trip id="veh181" depart="543.00" from="in_n5_1" to="out_1_n4" departLane="best" departSpeed="max"/>
    <trip id="veh182" depart="546.00" from="in_n4_1" to="out_1_n2" departLane="best" departSpeed="max"/>
    <trip id="veh183" depart="549.00" from="in_n5_1" to="out_1_n4" departLane="best" departSpeed="max"/>
    <trip id="veh184" depart="552.00" from="in_n3_1" to="out_1_n5" departLane="best" departSpeed="max"/>
    <trip id="veh185" depart="555.00" from="in_n5_1" to="out_1_n3" departLane="best" departSpeed="max"/>
    <trip id="veh186" depart="558.00" from="in_n2_1" to="out_1_n5" departLane="best" departSpeed="max"/>
    <trip id="veh187" depart="561.00" from="in_n2_1" to="out_1_n4" departLane="best" departSpeed="max"/>
    <trip id="veh188" depart="564.00" from="in_n3_1" to="out_1_n5" departLane="best" departSpeed="max"/>
    <trip id="veh189" depart="567.00" from="in_n2_1" to="out_1_n5" departLane="best" departSpeed="max"/>
    <trip id="veh190" depart="570.00" from="in_n4_1" to="out_1_n2" departLane="best" departSpeed="max"/>
    <trip id="veh191" depart="573.00" from="in_n4_1" to="out_1_n3" departLane="best" departSpeed="max"/>
    <trip id="veh192" depart="576.00" from="in_n4_1" to="out_1_n5" departLane="best" departSpeed="max"/>
    <trip id="veh193" depart="579.00" from="in_n4_1" to="out_1_n3" departLane="best" departSpeed="max"/>
    <trip id="veh194" depart="582.00" from="in_n4_1" to="out_1_n2" departLane="best" departSpeed="max"/>
    <trip id="veh195" depart="585.00" from="in_n3_1" to="out_1_n2" departLane="best" departSpeed="max"/>
    <trip id="veh196" depart="588.00" from="in_n4_1" to="out_1_n2" departLane="best" departSpeed="max"/>
    <trip id="veh197" depart="591.00" from="in_n4_1" to="out_1_n2" departLane="best" departSpeed="max"/>
    <trip id="veh198" depart="594.00" from="in_n4_1" to="out_1_n2" departLane="best" departSpeed="max"/>
    <trip id="veh199" depart="597.00" from="in_n2_1" to="out_1_n4" departLane="best" departSpeed="max"/>
    <trip id="veh200" depart="600.00" from="in_n4_1" to="out_1_n5" departLane="best" departSpeed="max"/>
    <trip id="veh201" depart="603.00" from="in_n4_1" to="out_1_n5" departLane="best" departSpeed="max"/>
    <trip id="veh202" depart="606.00" from="in_n2_1" to="out_1_n4" departLane="best" departSpeed="max"/>
    <trip id="veh203" depart="609.00" from="in_n4_1" to="out_1_n2" departLane="best" departSpeed="max"/>
    <trip id="veh204" depart="612.00" from="in_n4_1" to="out_1_n5" departLane="best" departSpeed="max"/>
    <trip id="veh205" depart="615.00" from="in_n2_1" to="out_1_n4" departLane="best" departSpeed="max"/>
    <trip id="veh206" depart="618.00" from="in_n4_1" to="out_1_n2" departLane="best" departSpeed="max"/>
    <trip id="veh207" depart="621.00" from="in_n4_1" to="out_1_n2" departLane="best" departSpeed="max"/>
    <trip id="veh208" depart="624.00" from="in_n5_1" to="out_1_n2" departLane="best" departSpeed="max"/>
    <trip id="veh209" depart="627.00" from="in_n3_1" to="out_1_n2" departLane="best" departSpeed="max"/>
    <trip id="veh210" depart="630.00" from="in_n4_1" to="out_1_n5" departLane="best" departSpeed="max"/>
    <trip id="veh211" depart="633.00" from="in_n3_1" to="out_1_n4" departLane="best" departSpeed="max"/>
    <trip id="veh212" depart="636.00" from="in_n3_1" to="out_1_n2" departLane="best" departSpeed="max"/>
    <trip id="veh213" depart="639.00" from="in_n3_1" to="out_1_n4" departLane="best" departSpeed="max"/>
    <trip id="veh214" depart="642.00" from="in_n5_1" to="out_1_n4" departLane="best" departSpeed="max"/>
    <trip id="veh215" depart="645.00" from="in_n2_1" to="out_1_n5" departLane="best" departSpeed="max"/>
    <trip id="veh216" depart="648.00" from="in_n4_1" to="out_1_n3" departLane="best" departSpeed="max"/>
    <trip id="veh217" depart="651.00" from="in_n2_1" to="out_1_n3" departLane="best" departSpeed="max"/>
    <trip id="veh218" depart="654.00" from="in_n4_1" to="out_1_n3" departLane="best" departSpeed="max"/>
    <trip id="veh219" depart="657.00" from="in_n2_1" to="out_1_n5" departLane="best" departSpeed="max"/>
    <trip id="veh220" depart="660.00" from="in_n3_1" to="out_1_n2" departLane="best" departSpeed="max"/>
    <trip id="veh221" depart="663.00" from="in_n5_1" to="out_1_n2" departLane="best" departSpeed="max"/>
    <trip id="veh222" depart="666.00" from="in_n3_1" to="out_1_n4" departLane="best" departSpeed="max"/>
    <trip id="veh223" depart="669.00" from="in_n4_1" to="out_1_n5" departLane="best" departSpeed="max"/>
    <trip id="veh224" depart="672.00" from="in_n2_1" to="out_1_n4" departLane="best" departSpeed="max"/>
    <trip id="veh225" depart="675.00" from="in_n5_1" to="out_1_n3" departLane="best" departSpeed="max"/>
    <trip id="veh226" depart="678.00" from="in_n4_1" to="out_1_n3" departLane="best" departSpeed="max"/>
    <trip id="veh227" depart="681.00" from="in_n4_1" to="out_1_n5" departLane="best" departSpeed="max"/>
    <trip id="veh228" depart="684.00" from="in_n3_1" to="out_1_n4" departLane="best" departSpeed="max"/>
    <trip id="veh229" depart="687.00" from="in_n3_1" to="out_1_n5" departLane="best" departSpeed="max"/>
    <trip id="veh230" depart="690.00" from="in_n5_1" to="out_1_n4" departLane="best" departSpeed="max"/>
    <trip id="veh231" depart="693.00" from="in_n5_1" to="out_1_n2" departLane="best" departSpeed="max"/>
    <trip id="veh232" depart="696.00" from="in_n4_1" to="out_1_n2" departLane="best" departSpeed="max"/>
    <trip id="veh233" depart="699.00" from="in_n3_1" to="out_1_n5" departLane="best" departSpeed="max"/>
    <trip id="veh234" depart="702.00" from="in_n3_1" to="out_1_n2" departLane="best" departSpeed="max"/>
    <trip id="veh235" depart="705.00" from="in_n2_1" to="out_1_n4" departLane="best" departSpeed="max"/>
    <trip id="veh236" depart="708.00" from="in_n3_1" to="out_1_n2" departLane="best" departSpeed="max"/>
    <trip id="veh237" depart="711.00" from="in_n3_1" to="out_1_n5" departLane="best" departSpeed="max"/>
    <trip id="veh238" depart="714.00" from="in_n3_1" to="out_1_n4" departLane="best" departSpeed="max"/>
    <trip id="veh239" depart="717.00" from="in_n3_1" to="out_1_n2" departLane="best" departSpeed="max"/>
    <trip id="veh240" depart="720.00" from="in_n4_1" to="out_1_n2" departLane="best" departSpeed="max"/>
    <trip id="veh241" depart="723.00" from="in_n2_1" to="out_1_n4" departLane="best" departSpeed="max"/>
    <trip id="veh242" depart="726.00" from="in_n4_1" to="out_1_n2" departLane="best" departSpeed="max"/>
    <trip id="veh243" depart="729.00" from="in_n5_1" to="out_1_n2" departLane="best" departSpeed="max"/>
    <trip id="veh244" depart="732.00" from="in_n2_1" to="out_1_n3" departLane="best" departSpeed="max"/>
    <trip id="veh245" depart="735.00" from="in_n5_1" to="out_1_n4" departLane="best" departSpeed="max"/>
    <trip id="veh246" depart="738.00" from="in_n4_1" to="out_1_n3" departLane="best" departSpeed="max"/>
    <trip id="veh247" depart="741.00" from="in_n5_1" to="out_1_n2" departLane="best" departSpeed="max"/>
    <trip id="veh248" depart="744.00" from="in_n5_1" to="out_1_n2" departLane="best" departSpeed="max"/>
    <trip id="veh249" depart="747.00" from="in_n2_1" to="out_1_n5" departLane="best" departSpeed="max"/>
    <trip id="veh250" depart="750.00" from="in_n5_1" to="out_1_n4" departLane="best" departSpeed="max"/>
    <trip id="veh251" depart="753.00" from="in_n2_1" to="out_1_n5" departLane="best" departSpeed="max"/>
    <trip id="veh252" depart="756.00" from="in_n4_1" to="out_1_n2" departLane="best" departSpeed="max"/>
    <trip id="veh253" depart="759.00" from="in_n2_1" to="out_1_n5" departLane="best" departSpeed="max"/>
    <trip id="veh254" depart="762.00" from="in_n3_1" to="out_1_n5" departLane="best" departSpeed="max"/>
    <trip id="veh255" depart="765.00" from="in_n4_1" to="out_1_n2" departLane="best" departSpeed="max"/>
    <trip id="veh256" depart="768.00" from="in_n4_1" to="out_1_n2" departLane="best" departSpeed="max"/>
    <trip id="veh257" depart="771.00" from="in_n2_1" to="out_1_n4" departLane="best" departSpeed="max"/>
    <trip id="veh258" depart="774.00" from="in_n5_1" to="out_1_n3" departLane="best" departSpeed="max"/>
    <trip id="veh259" depart="777.00" from="in_n3_1" to="out_1_n4" departLane="best" departSpeed="max"/>
    <trip id="veh260" depart="780.00" from="in_n2_1" to="out_1_n3" departLane="best" departSpeed="max"/>
    <trip id="veh261" depart="783.00" from="in_n4_1" to="out_1_n5" departLane="best" departSpeed="max"/>
    <trip id="veh262" depart="786.00" from="in_n2_1" to="out_1_n5" departLane="best" departSpeed="max"/>
    <trip id="veh263" depart="789.00" from="in_n3_1" to="out_1_n2" departLane="best" departSpeed="max"/>
    <trip id="veh264" depart="792.00" from="in_n2_1" to="out_1_n4" departLane="best" departSpeed="max"/>
    <trip id="veh265" depart="795.00" from="in_n3_1" to="out_1_n2" departLane="best" departSpeed="max"/>
    <trip id="veh266" depart="798.00" from="in_n4_1" to="out_1_n2" departLane="best" departSpeed="max"/>
    <trip id="veh267" depart="801.00" from="in_n4_1" to="out_1_n5" departLane="best" departSpeed="max"/>
    <trip id="veh268" depart="804.00" from="in_n3_1" to="out_1_n2" departLane="best" departSpeed="max"/>
    <trip id="veh269" depart="807.00" from="in_n3_1" to="out_1_n4" departLane="best" departSpeed="max"/>
    <trip id="veh270" depart="810.00" from="in_n3_1" to="out_1_n2" departLane="best" departSpeed="max"/>
    <trip id="veh271" depart="813.00" from="in_n2_1" to="out_1_n5" departLane="best" departSpeed="max"/>
    <trip id="veh272" depart="816.00" from="in_n3_1" to="out_1_n5" departLane="best" departSpeed="max"/>
    <trip id="veh273" depart="819.00" from="in_n3_1" to="out_1_n4" departLane="best" departSpeed="max"/>
    <trip id="veh274" depart="822.00" from="in_n3_1" to="out_1_n4" departLane="best" departSpeed="max"/>
    <trip id="veh275" depart="825.00" from="in_n5_1" to="out_1_n2" departLane="best" departSpeed="max"/>
    <trip id="veh276" depart="828.00" from="in_n2_1" to="out_1_n5" departLane="best" departSpeed="max"/>
    <trip id="veh277" depart="831.00" from="in_n5_1" to="out_1_n2" departLane="best" departSpeed="max"/>
    <trip id="veh278" depart="834.00" from="in_n4_1" to="out_1_n2" departLane="best" departSpeed="max"/>
    <trip id="veh279" depart="837.00" from="in_n5_1" to="out_1_n3" departLane="best" departSpeed="max"/>
    <trip id="veh280" depart="840.00" from="in_n3_1" to="out_1_n4" departLane="best" departSpeed="max"/>