<configuration>
        <input>
            <net-file value="tl_intersection.net.xml"/>
            <route-files value="tl_intersection.rou.xml"/>
        </input>
        <time>
            <begin value="0"/>
            <end value="1000"/>
        </time>
    </configuration>