<additional>
    <tlLogic id="1" type="static" programID="custom" offset="0">
        <phase duration="15" state="GGGrrrGGGrrr"/>
        <phase duration="35" state="rrrGGGrrrGGG"/>
    </tlLogic>
</additional>