<?xml version="1.0" encoding="UTF-8"?>

<!-- generated on 2025-06-12 10:55:00 by Eclipse SUMO netconvert Version 1.23.1
<netconvertConfiguration xmlns:xsi="http://www.w3.org/2001/XMLSchema-instance" xsi:noNamespaceSchemaLocation="http://sumo.dlr.de/xsd/netconvertConfiguration.xsd">

    <input>
        <node-files value="tlInt.nod.xml"/>
        <edge-files value="tlInt.edg.xml"/>
        <connection-files value="tlInt.con.xml"/>
    </input>

    <output>
        <output-file value="tl_intersection.net.xml"/>
    </output>

</netconvertConfiguration>
-->

<net version="1.20" junctionCornerDetail="5" limitTurnSpeed="5.50" xmlns:xsi="http://www.w3.org/2001/XMLSchema-instance" xsi:noNamespaceSchemaLocation="http://sumo.dlr.de/xsd/net_file.xsd">

    <location netOffset="100.00,100.00" convBoundary="0.00,0.00,200.00,200.00" origBoundary="-100.00,-100.00,100.00,100.00" projParameter="!"/>

    <edge id=":nE_0" function="internal">
        <lane id=":nE_0_0" index="0" speed="3.65" length="4.67" shape="200.00,98.40 201.20,99.20 201.60,100.00 201.20,100.80 200.00,101.60"/>
    </edge>
    <edge id=":nN_0" function="internal">
        <lane id=":nN_0_0" index="0" speed="3.65" length="4.67" shape="101.60,200.00 100.80,201.20 100.00,201.60 99.20,201.20 98.40,200.00"/>
    </edge>
    <edge id=":nS_0" function="internal">
        <lane id=":nS_0_0" index="0" speed="3.65" length="4.67" shape="98.40,0.00 99.20,-1.20 100.00,-1.60 100.80,-1.20 101.60,0.00"/>
    </edge>
    <edge id=":nW_0" function="internal">
        <lane id=":nW_0_0" index="0" speed="3.65" length="4.67" shape="0.00,101.60 -1.20,100.80 -1.60,100.00 -1.20,99.20 0.00,98.40"/>
    </edge>
    <edge id=":r1_0" function="internal">
        <lane id=":r1_0_0" index="0" speed="10.64" length="10.35" shape="98.40,120.80 98.81,119.75 100.02,118.08 102.05,115.77 104.90,112.84"/>
    </edge>
    <edge id=":r1_1" function="internal">
        <lane id=":r1_1_0" index="0" speed="7.16" length="11.17" shape="95.10,112.84 97.55,114.68 100.00,115.29 102.45,114.68 104.90,112.84"/>
    </edge>
    <edge id=":r1_2" function="internal">
        <lane id=":r1_2_0" index="0" speed="10.64" length="10.35" shape="95.10,112.84 97.95,115.77 99.98,118.08 101.19,119.75 101.60,120.80"/>
    </edge>
    <edge id=":r2_0" function="internal">
        <lane id=":r2_0_0" index="0" speed="10.64" length="10.35" shape="120.80,101.60 119.75,101.19 118.08,99.98 115.77,97.95 112.84,95.10"/>
    </edge>
    <edge id=":r2_1" function="internal">
        <lane id=":r2_1_0" index="0" speed="7.16" length="11.17" shape="112.84,104.90 114.68,102.45 115.29,100.00 114.68,97.55 112.84,95.10"/>
    </edge>
    <edge id=":r2_2" function="internal">
        <lane id=":r2_2_0" index="0" speed="10.64" length="10.35" shape="112.84,104.90 115.77,102.05 118.08,100.02 119.75,98.81 120.80,98.40"/>
    </edge>
    <edge id=":r3_0" function="internal">
        <lane id=":r3_0_0" index="0" speed="7.16" length="11.17" shape="104.90,87.16 102.45,85.32 100.00,84.71 97.55,85.32 95.10,87.16"/>
    </edge>
    <edge id=":r3_1" function="internal">
        <lane id=":r3_1_0" index="0" speed="10.64" length="10.35" shape="104.90,87.16 102.05,84.23 100.02,81.92 98.81,80.25 98.40,79.20"/>
    </edge>
    <edge id=":r3_2" function="internal">
        <lane id=":r3_2_0" index="0" speed="10.64" length="10.35" shape="101.60,79.20 101.19,80.25 99.98,81.92 97.95,84.23 95.10,87.16"/>
    </edge>
    <edge id=":r4_0" function="internal">
        <lane id=":r4_0_0" index="0" speed="7.16" length="11.17" shape="87.16,95.10 85.32,97.55 84.71,100.00 85.32,102.45 87.16,104.90"/>
    </edge>
    <edge id=":r4_1" function="internal">
        <lane id=":r4_1_0" index="0" speed="10.64" length="10.35" shape="87.16,95.10 84.23,97.95 81.92,99.98 80.25,101.19 79.20,101.60"/>
    </edge>
    <edge id=":r4_2" function="internal">
        <lane id=":r4_2_0" index="0" speed="10.64" length="10.35" shape="79.20,98.40 80.25,98.81 81.92,100.02 84.23,102.05 87.16,104.90"/>
    </edge>

    <edge id="in_E_r2" from="nE" to="r2" priority="1">
        <lane id="in_E_r2_0" index="0" speed="13.90" length="79.20" shape="200.00,101.60 120.80,101.60"/>
    </edge>
    <edge id="in_N_r1" from="nN" to="r1" priority="1">
        <lane id="in_N_r1_0" index="0" speed="13.90" length="79.20" shape="98.40,200.00 98.40,120.80"/>
    </edge>
    <edge id="in_S_r3" from="nS" to="r3" priority="1">
        <lane id="in_S_r3_0" index="0" speed="13.90" length="79.20" shape="101.60,0.00 101.60,79.20"/>
    </edge>
    <edge id="in_W_r4" from="nW" to="r4" priority="1">
        <lane id="in_W_r4_0" index="0" speed="13.90" length="79.20" shape="0.00,98.40 79.20,98.40"/>
    </edge>
    <edge id="out_r1_N" from="r1" to="nN" priority="1">
        <lane id="out_r1_N_0" index="0" speed="13.90" length="79.20" shape="101.60,120.80 101.60,200.00"/>
    </edge>
    <edge id="out_r2_E" from="r2" to="nE" priority="1">
        <lane id="out_r2_E_0" index="0" speed="13.90" length="79.20" shape="120.80,98.40 200.00,98.40"/>
    </edge>
    <edge id="out_r3_S" from="r3" to="nS" priority="1">
        <lane id="out_r3_S_0" index="0" speed="13.90" length="79.20" shape="98.40,79.20 98.40,0.00"/>
    </edge>
    <edge id="out_r4_W" from="r4" to="nW" priority="1">
        <lane id="out_r4_W_0" index="0" speed="13.90" length="79.20" shape="79.20,101.60 0.00,101.60"/>
    </edge>
    <edge id="r1_r2" from="r1" to="r2" priority="2">
        <lane id="r1_r2_0" index="0" speed="8.30" length="11.23" shape="104.90,112.84 112.84,104.90"/>
    </edge>
    <edge id="r2_r3" from="r2" to="r3" priority="2">
        <lane id="r2_r3_0" index="0" speed="8.30" length="11.23" shape="112.84,95.10 104.90,87.16"/>
    </edge>
    <edge id="r3_r4" from="r3" to="r4" priority="2">
        <lane id="r3_r4_0" index="0" speed="8.30" length="11.23" shape="95.10,87.16 87.16,95.10"/>
    </edge>
    <edge id="r4_r1" from="r4" to="r1" priority="2">
        <lane id="r4_r1_0" index="0" speed="8.30" length="11.23" shape="87.16,104.90 95.10,112.84"/>
    </edge>

    <junction id="nE" type="priority" x="200.00" y="100.00" incLanes="out_r2_E_0" intLanes=":nE_0_0" shape="200.00,100.00 200.00,96.80 200.00,100.00">
        <request index="0" response="0" foes="0" cont="0"/>
    </junction>
    <junction id="nN" type="priority" x="100.00" y="200.00" incLanes="out_r1_N_0" intLanes=":nN_0_0" shape="100.00,200.00 103.20,200.00 100.00,200.00">
        <request index="0" response="0" foes="0" cont="0"/>
    </junction>
    <junction id="nS" type="priority" x="100.00" y="0.00" incLanes="out_r3_S_0" intLanes=":nS_0_0" shape="100.00,0.00 96.80,0.00 100.00,0.00">
        <request index="0" response="0" foes="0" cont="0"/>
    </junction>
    <junction id="nW" type="priority" x="0.00" y="100.00" incLanes="out_r4_W_0" intLanes=":nW_0_0" shape="0.00,100.00 0.00,103.20 0.00,100.00">
        <request index="0" response="0" foes="0" cont="0"/>
    </junction>
    <junction id="r1" type="priority" x="100.00" y="120.00" incLanes="in_N_r1_0 r4_r1_0" intLanes=":r1_0_0 :r1_1_0 :r1_2_0" shape="96.80,120.80 103.20,120.80 103.51,118.26 103.91,117.09 104.46,115.99 105.16,114.95 106.03,113.97 103.77,111.71 101.26,113.38 100.00,113.59 98.74,113.38 97.49,112.75 96.23,111.71 93.97,113.97 95.54,115.99 96.09,117.09 96.49,118.26 96.72,119.50">
        <request index="0" response="110" foes="110" cont="0"/>
        <request index="1" response="000" foes="001" cont="0"/>
        <request index="2" response="000" foes="001" cont="0"/>
    </junction>
    <junction id="r2" type="priority" x="120.00" y="100.00" incLanes="in_E_r2_0 r1_r2_0" intLanes=":r2_0_0 :r2_1_0 :r2_2_0" shape="120.80,103.20 120.80,96.80 118.26,96.49 117.09,96.09 115.99,95.54 114.95,94.84 113.97,93.97 111.71,96.23 113.38,98.74 113.59,100.00 113.38,101.26 112.75,102.51 111.71,103.77 113.97,106.03 115.99,104.46 117.09,103.91 118.26,103.51 119.50,103.28">
        <request index="0" response="110" foes="110" cont="0"/>
        <request index="1" response="000" foes="001" cont="0"/>
        <request index="2" response="000" foes="001" cont="0"/>
    </junction>
    <junction id="r3" type="priority" x="100.00" y="80.00" incLanes="r2_r3_0 in_S_r3_0" intLanes=":r3_0_0 :r3_1_0 :r3_2_0" shape="103.77,88.29 106.03,86.03 104.46,84.01 103.91,82.91 103.51,81.74 103.28,80.50 103.20,79.20 96.80,79.20 96.49,81.74 96.09,82.91 95.54,84.01 94.84,85.05 93.97,86.03 96.23,88.29 98.74,86.62 100.00,86.41 101.26,86.62 102.51,87.25">
        <request index="0" response="000" foes="100" cont="0"/>
        <request index="1" response="000" foes="100" cont="0"/>
        <request index="2" response="011" foes="011" cont="0"/>
    </junction>
    <junction id="r4" type="priority" x="80.00" y="100.00" incLanes="r3_r4_0 in_W_r4_0" intLanes=":r4_0_0 :r4_1_0 :r4_2_0" shape="86.03,106.03 88.29,103.77 86.62,101.26 86.41,100.00 86.62,98.74 87.25,97.49 88.29,96.23 86.03,93.97 84.01,95.54 82.91,96.09 81.74,96.49 80.50,96.72 79.20,96.80 79.20,103.20 81.74,103.51 82.91,103.91 84.01,104.46 85.05,105.16">
        <request index="0" response="000" foes="100" cont="0"/>
        <request index="1" response="000" foes="100" cont="0"/>
        <request index="2" response="011" foes="011" cont="0"/>
    </junction>

    <connection from="in_E_r2" to="r2_r3" fromLane="0" toLane="0" via=":r2_0_0" dir="l" state="m"/>
    <connection from="in_N_r1" to="r1_r2" fromLane="0" toLane="0" via=":r1_0_0" dir="l" state="m"/>
    <connection from="in_S_r3" to="r3_r4" fromLane="0" toLane="0" via=":r3_2_0" dir="l" state="m"/>
    <connection from="in_W_r4" to="r4_r1" fromLane="0" toLane="0" via=":r4_2_0" dir="l" state="m"/>
    <connection from="out_r1_N" to="in_N_r1" fromLane="0" toLane="0" via=":nN_0_0" dir="t" state="M"/>
    <connection from="out_r2_E" to="in_E_r2" fromLane="0" toLane="0" via=":nE_0_0" dir="t" state="M"/>
    <connection from="out_r3_S" to="in_S_r3" fromLane="0" toLane="0" via=":nS_0_0" dir="t" state="M"/>
    <connection from="out_r4_W" to="in_W_r4" fromLane="0" toLane="0" via=":nW_0_0" dir="t" state="M"/>
    <connection from="r1_r2" to="r2_r3" fromLane="0" toLane="0" via=":r2_1_0" dir="r" state="M"/>
    <connection from="r1_r2" to="out_r2_E" fromLane="0" toLane="0" via=":r2_2_0" dir="l" state="M"/>
    <connection from="r2_r3" to="r3_r4" fromLane="0" toLane="0" via=":r3_0_0" dir="r" state="M"/>
    <connection from="r2_r3" to="out_r3_S" fromLane="0" toLane="0" via=":r3_1_0" dir="l" state="M"/>
    <connection from="r3_r4" to="r4_r1" fromLane="0" toLane="0" via=":r4_0_0" dir="r" state="M"/>
    <connection from="r3_r4" to="out_r4_W" fromLane="0" toLane="0" via=":r4_1_0" dir="l" state="M"/>
    <connection from="r4_r1" to="r1_r2" fromLane="0" toLane="0" via=":r1_1_0" dir="r" state="M"/>
    <connection from="r4_r1" to="out_r1_N" fromLane="0" toLane="0" via=":r1_2_0" dir="l" state="M"/>

    <connection from=":nE_0" to="in_E_r2" fromLane="0" toLane="0" dir="t" state="M"/>
    <connection from=":nN_0" to="in_N_r1" fromLane="0" toLane="0" dir="t" state="M"/>
    <connection from=":nS_0" to="in_S_r3" fromLane="0" toLane="0" dir="t" state="M"/>
    <connection from=":nW_0" to="in_W_r4" fromLane="0" toLane="0" dir="t" state="M"/>
    <connection from=":r1_0" to="r1_r2" fromLane="0" toLane="0" dir="l" state="M"/>
    <connection from=":r1_1" to="r1_r2" fromLane="0" toLane="0" dir="r" state="M"/>
    <connection from=":r1_2" to="out_r1_N" fromLane="0" toLane="0" dir="l" state="M"/>
    <connection from=":r2_0" to="r2_r3" fromLane="0" toLane="0" dir="l" state="M"/>
    <connection from=":r2_1" to="r2_r3" fromLane="0" toLane="0" dir="r" state="M"/>
    <connection from=":r2_2" to="out_r2_E" fromLane="0" toLane="0" dir="l" state="M"/>
    <connection from=":r3_0" to="r3_r4" fromLane="0" toLane="0" dir="r" state="M"/>
    <connection from=":r3_1" to="out_r3_S" fromLane="0" toLane="0" dir="l" state="M"/>
    <connection from=":r3_2" to="r3_r4" fromLane="0" toLane="0" dir="l" state="M"/>
    <connection from=":r4_0" to="r4_r1" fromLane="0" toLane="0" dir="r" state="M"/>
    <connection from=":r4_1" to="out_r4_W" fromLane="0" toLane="0" dir="l" state="M"/>
    <connection from=":r4_2" to="r4_r1" fromLane="0" toLane="0" dir="l" state="M"/>

</net>
