<additional>
    <tlLogic id="1" type="static" programID="custom" offset="0">
        <phase duration="30" state="GGGrrrGGGrrr"/>
        <phase duration="5" state="yyyrrryyyrrr"/>
        <phase duration="35" state="rrrGGGrrrGGG"/>
        <phase duration="5" state="rrryyyrrryyy"/>
    </tlLogic>
</additional>