<?xml version="1.0" encoding="UTF-8"?>

<!-- generated on 2025-06-12 10:53:20.139012 by randomTrips.py v1_23_1+0000-676720d13f6
<configuration>
    <net-file value="tl_intersection.net.xml"/>
    <output-trip-file value="tl_intersection.trips.xml"/>
    <prefix value="veh"/>
    <trip-attributes value="departLane=&quot;best&quot; departSpeed=&quot;max&quot;"/>
    <seed value="13"/>
    <min-distance value="50.0"/>
    <period value="10.0"/>
</configuration>
-->

<routes xmlns:xsi="http://www.w3.org/2001/XMLSchema-instance" xsi:noNamespaceSchemaLocation="http://sumo.dlr.de/xsd/routes_file.xsd">
    <trip id="veh0" depart="0.00" from="in_S_r3" to="r2_r3" departLane="best" departSpeed="max"/>
    <trip id="veh1" depart="10.00" from="in_N_r1" to="out_r2_E" departLane="best" departSpeed="max"/>
    <trip id="veh2" depart="20.00" from="in_N_r1" to="out_r2_E" departLane="best" departSpeed="max"/>
    <trip id="veh3" depart="30.00" from="r2_r3" to="out_r2_E" departLane="best" departSpeed="max"/>
    <trip id="veh4" depart="40.00" from="r1_r2" to="out_r2_E" departLane="best" departSpeed="max"/>
    <trip id="veh5" depart="50.00" from="in_S_r3" to="out_r4_W" departLane="best" departSpeed="max"/>
    <trip id="veh6" depart="60.00" from="in_E_r2" to="out_r3_S" departLane="best" departSpeed="max"/>
    <trip id="veh7" depart="70.00" from="in_N_r1" to="r3_r4" departLane="best" departSpeed="max"/>
    <trip id="veh8" depart="80.00" from="in_S_r3" to="r3_r4" departLane="best" departSpeed="max"/>
    <trip id="veh9" depart="90.00" from="in_W_r4" to="r3_r4" departLane="best" departSpeed="max"/>
    <trip id="veh10" depart="100.00" from="r1_r2" to="out_r4_W" departLane="best" departSpeed="max"/>
    <trip id="veh11" depart="110.00" from="in_S_r3" to="out_r4_W" departLane="best" departSpeed="max"/>
    <trip id="veh12" depart="120.00" from="in_S_r3" to="out_r1_N" departLane="best" departSpeed="max"/>
    <trip id="veh13" depart="130.00" from="in_N_r1" to="r2_r3" departLane="best" departSpeed="max"/>
    <trip id="veh14" depart="140.00" from="in_W_r4" to="out_r2_E" departLane="best" departSpeed="max"/>
    <trip id="veh15" depart="150.00" from="in_N_r1" to="r1_r2" departLane="best" departSpeed="max"/>
    <trip id="veh16" depart="160.00" from="in_S_r3" to="out_r4_W" departLane="best" departSpeed="max"/>
    <trip id="veh17" depart="170.00" from="r1_r2" to="out_r4_W" departLane="best" departSpeed="max"/>
    <trip id="veh18" depart="180.00" from="in_N_r1" to="out_r4_W" departLane="best" departSpeed="max"/>
    <trip id="veh19" depart="190.00" from="in_N_r1" to="out_r2_E" departLane="best" departSpeed="max"/>
    <trip id="veh20" depart="200.00" from="in_N_r1" to="out_r3_S" departLane="best" departSpeed="max"/>
    <trip id="veh21" depart="210.00" from="in_E_r2" to="r2_r3" departLane="best" departSpeed="max"/>
    <trip id="veh22" depart="220.00" from="r4_r1" to="out_r4_W" departLane="best" departSpeed="max"/>
    <trip id="veh23" depart="230.00" from="r2_r3" to="out_r2_E" departLane="best" departSpeed="max"/>
    <trip id="veh24" depart="240.00" from="in_W_r4" to="r3_r4" departLane="best" departSpeed="max"/>
    <trip id="veh25" depart="250.00" from="in_N_r1" to="r3_r4" departLane="best" departSpeed="max"/>
    <trip id="veh26" depart="260.00" from="in_S_r3" to="r2_r3" departLane="best" departSpeed="max"/>
    <trip id="veh27" depart="270.00" from="in_N_r1" to="r4_r1" departLane="best" departSpeed="max"/>
    <trip id="veh28" depart="280.00" from="in_N_r1" to="r1_r2" departLane="best" departSpeed="max"/>
    <trip id="veh29" depart="290.00" from="in_S_r3" to="r2_r3" departLane="best" departSpeed="max"/>
    <trip id="veh30" depart="300.00" from="in_N_r1" to="r2_r3" departLane="best" departSpeed="max"/>
    <trip id="veh31" depart="310.00" from="in_E_r2" to="r2_r3" departLane="best" departSpeed="max"/>
    <trip id="veh32" depart="320.00" from="in_E_r2" to="out_r4_W" departLane="best" departSpeed="max"/>
    <trip id="veh33" depart="330.00" from="in_S_r3" to="out_r1_N" departLane="best" departSpeed="max"/>
    <trip id="veh34" depart="340.00" from="in_E_r2" to="r4_r1" departLane="best" departSpeed="max"/>
    <trip id="veh35" depart="350.00" from="in_E_r2" to="out_r3_S" departLane="best" departSpeed="max"/>
    <trip id="veh36" depart="360.00" from="in_S_r3" to="r1_r2" departLane="best" departSpeed="max"/>
    <trip id="veh37" depart="370.00" from="in_E_r2" to="out_r4_W" departLane="best" departSpeed="max"/>
    <trip id="veh38" depart="380.00" from="in_S_r3" to="r3_r4" departLane="best" departSpeed="max"/>
    <trip id="veh39" depart="390.00" from="in_E_r2" to="out_r3_S" departLane="best" departSpeed="max"/>
    <trip id="veh40" depart="400.00" from="in_W_r4" to="r4_r1" departLane="best" departSpeed="max"/>
    <trip id="veh41" depart="410.00" from="r1_r2" to="out_r4_W" departLane="best" departSpeed="max"/>
    <trip id="veh42" depart="420.00" from="r2_r3" to="out_r3_S" departLane="best" departSpeed="max"/>
    <trip id="veh43" depart="430.00" from="in_E_r2" to="r1_r2" departLane="best" departSpeed="max"/>
    <trip id="veh44" depart="440.00" from="in_S_r3" to="r2_r3" departLane="best" departSpeed="max"/>
    <trip id="veh45" depart="450.00" from="r3_r4" to="out_r3_S" departLane="best" departSpeed="max"/>
    <trip id="veh46" depart="460.00" from="r1_r2" to="out_r3_S" departLane="best" departSpeed="max"/>
    <trip id="veh47" depart="470.00" from="in_N_r1" to="out_r3_S" departLane="best" departSpeed="max"/>
    <trip id="veh48" depart="480.00" from="in_N_r1" to="out_r3_S" departLane="best" departSpeed="max"/>
    <trip id="veh49" depart="490.00" from="in_E_r2" to="out_r4_W" departLane="best" departSpeed="max"/>
    <trip id="veh50" depart="500.00" from="in_E_r2" to="r3_r4" departLane="best" departSpeed="max"/>
    <trip id="veh51" depart="510.00" from="r1_r2" to="out_r1_N" departLane="best" departSpeed="max"/>
    <trip id="veh52" depart="520.00" from="r3_r4" to="out_r2_E" departLane="best" departSpeed="max"/>
    <trip id="veh53" depart="530.00" from="in_W_r4" to="r1_r2" departLane="best" departSpeed="max"/>
    <trip id="veh54" depart="540.00" from="in_W_r4" to="out_r2_E" departLane="best" departSpeed="max"/>
    <trip id="veh55" depart="550.00" from="r3_r4" to="out_r1_N" departLane="best" departSpeed="max"/>
    <trip id="veh56" depart="560.00" from="r3_r4" to="out_r2_E" departLane="best" departSpeed="max"/>
    <trip id="veh57" depart="570.00" from="in_S_r3" to="out_r4_W" departLane="best" departSpeed="max"/>
    <trip id="veh58" depart="580.00" from="in_S_r3" to="out_r4_W" departLane="best" departSpeed="max"/>
    <trip id="veh59" depart="590.00" from="in_E_r2" to="r1_r2" departLane="best" departSpeed="max"/>
    <trip id="veh60" depart="600.00" from="in_N_r1" to="r3_r4" departLane="best" departSpeed="max"/>
    <trip id="veh61" depart="610.00" from="in_S_r3" to="r4_r1" departLane="best" departSpeed="max"/>
    <trip id="veh62" depart="620.00" from="r1_r2" to="out_r2_E" departLane="best" departSpeed="max"/>
    <trip id="veh63" depart="630.00" from="r3_r4" to="out_r2_E" departLane="best" departSpeed="max"/>
    <trip id="veh64" depart="640.00" from="in_W_r4" to="out_r3_S" departLane="best" departSpeed="max"/>
    <trip id="veh65" depart="650.00" from="in_S_r3" to="r3_r4" departLane="best" departSpeed="max"/>
    <trip id="veh66" depart="660.00" from="in_N_r1" to="r2_r3" departLane="best" departSpeed="max"/>
    <trip id="veh67" depart="670.00" from="in_W_r4" to="r1_r2" departLane="best" departSpeed="max"/>
    <trip id="veh68" depart="680.00" from="r4_r1" to="out_r1_N" departLane="best" departSpeed="max"/>
    <trip id="veh69" depart="690.00" from="in_N_r1" to="r1_r2" departLane="best" departSpeed="max"/>
    <trip id="veh70" depart="700.00" from="in_S_r3" to="r4_r1" departLane="best" departSpeed="max"/>
    <trip id="veh71" depart="710.00" from="in_S_r3" to="out_r1_N" departLane="best" departSpeed="max"/>
    <trip id="veh72" depart="720.00" from="in_E_r2" to="out_r1_N" departLane="best" departSpeed="max"/>
    <trip id="veh73" depart="730.00" from="r2_r3" to="out_r1_N" departLane="best" departSpeed="max"/>
    <trip id="veh74" depart="740.00" from="in_W_r4" to="r1_r2" departLane="best" departSpeed="max"/>
    <trip id="veh75" depart="750.00" from="in_S_r3" to="r3_r4" departLane="best" departSpeed="max"/>
    <trip id="veh76" depart="760.00" from="in_E_r2" to="out_r3_S" departLane="best" departSpeed="max"/>
    <trip id="veh77" depart="770.00" from="r4_r1" to="out_r4_W" departLane="best" departSpeed="max"/>
    <trip id="veh78" depart="780.00" from="in_S_r3" to="r3_r4" departLane="best" departSpeed="max"/>
    <trip id="veh79" depart="790.00" from="in_W_r4" to="out_r1_N" departLane="best" departSpeed="max"/>
    <trip id="veh80" depart="800.00" from="in_E_r2" to="out_r3_S" departLane="best" departSpeed="max"/>
    <trip id="veh81" depart="810.00" from="in_S_r3" to="r4_r1" departLane="best" departSpeed="max"/>
    <trip id="veh82" depart="820.00" from="in_N_r1" to="r3_r4" departLane="best" departSpeed="max"/>
    <trip id="veh83" depart="830.00" from="r3_r4" to="out_r4_W" departLane="best" departSpeed="max"/>
    <trip id="veh84" depart="840.00" from="in_W_r4" to="out_r3_S" departLane="best" departSpeed="max"/>
    <trip id="veh85" depart="850.00" from="in_W_r4" to="r4_r1" departLane="best" departSpeed="max"/>
    <trip id="veh86" depart="860.00" from="r1_r2" to="out_r2_E" departLane="best" departSpeed="max"/>
    <trip id="veh87" depart="870.00" from="in_N_r1" to="r1_r2" departLane="best" departSpeed="max"/>
    <trip id="veh88" depart="880.00" from="in_E_r2" to="r3_r4" departLane="best" departSpeed="max"/>
    <trip id="veh89" depart="890.00" from="r1_r2" to="out_r3_S" departLane="best" departSpeed="max"/>
    <trip id="veh90" depart="900.00" from="r4_r1" to="out_r4_W" departLane="best" departSpeed="max"/>
    <trip id="veh91" depart="910.00" from="in_N_r1" to="r2_r3" departLane="best" departSpeed="max"/>
    <trip id="veh92" depart="920.00" from="r2_r3" to="out_r4_W" departLane="best" departSpeed="max"/>
    <trip id="veh93" depart="930.00" from="r4_r1" to="out_r1_N" departLane="best" departSpeed="max"/>
    <trip id="veh94" depart="940.00" from="r3_r4" to="out_r2_E" departLane="best" departSpeed="max"/>
    <trip id="veh95" depart="950.00" from="r3_r4" to="out_r2_E" departLane="best" departSpeed="max"/>
    <trip id="veh96" depart="960.00" from="in_E_r2" to="r1_r2" departLane="best" departSpeed="max"/>
    <trip id="veh97" depart="970.00" from="r4_r1" to="out_r3_S" departLane="best" departSpeed="max"/>
    <trip id="veh98" depart="980.00" from="in_W_r4" to="r1_r2" departLane="best" departSpeed="max"/>
    <trip id="veh99" depart="990.00" from="in_N_r1" to="r1_r2" departLane="best" departSpeed="max"/>
    <trip id="veh100" depart="1000.00" from="in_E_r2" to="out_r4_W" departLane="best" departSpeed="max"/>
    <trip id="veh101" depart="1010.00" from="r3_r4" to="out_r3_S" departLane="best" departSpeed="max"/>
    <trip id="veh102" depart="1020.00" from="r2_r3" to="out_r4_W" departLane="best" departSpeed="max"/>
    <trip id="veh103" depart="1030.00" from="in_E_r2" to="r4_r1" departLane="best" departSpeed="max"/>
    <trip id="veh104" depart="1040.00" from="r1_r2" to="out_r3_S" departLane="best" departSpeed="max"/>
    <trip id="veh105" depart="1050.00" from="in_N_r1" to="r2_r3" departLane="best" departSpeed="max"/>
    <trip id="veh106" depart="1060.00" from="r1_r2" to="out_r1_N" departLane="best" departSpeed="max"/>
    <trip id="veh107" depart="1070.00" from="r4_r1" to="out_r4_W" departLane="best" departSpeed="max"/>
    <trip id="veh108" depart="1080.00" from="r3_r4" to="out_r4_W" departLane="best" departSpeed="max"/>
    <trip id="veh109" depart="1090.00" from="r1_r2" to="out_r4_W" departLane="best" departSpeed="max"/>
    <trip id="veh110" depart="1100.00" from="r4_r1" to="out_r4_W" departLane="best" departSpeed="max"/>
    <trip id="veh111" depart="1110.00" from="r4_r1" to="out_r3_S" departLane="best" departSpeed="max"/>
    <trip id="veh112" depart="1120.00" from="r2_r3" to="out_r4_W" departLane="best" departSpeed="max"/>
    <trip id="veh113" depart="1130.00" from="in_E_r2" to="out_r4_W" departLane="best" departSpeed="max"/>
    <trip id="veh114" depart="1140.00" from="in_W_r4" to="r3_r4" departLane="best" departSpeed="max"/>
    <trip id="veh115" depart="1150.00" from="in_N_r1" to="out_r3_S" departLane="best" departSpeed="max"/>
    <trip id="veh116" depart="1160.00" from="in_S_r3" to="r4_r1" departLane="best" departSpeed="max"/>
    <trip id="veh117" depart="1170.00" from="in_N_r1" to="r4_r1" departLane="best" departSpeed="max"/>
    <trip id="veh118" depart="1180.00" from="in_S_r3" to="out_r2_E" departLane="best" departSpeed="max"/>
    <trip id="veh119" depart="1190.00" from="r4_r1" to="out_r1_N" departLane="best" departSpeed="max"/>
    <trip id="veh120" depart="1200.00" from="in_E_r2" to="out_r4_W" departLane="best" departSpeed="max"/>
    <trip id="veh121" depart="1210.00" from="in_N_r1" to="out_r2_E" departLane="best" departSpeed="max"/>
    <trip id="veh122" depart="1220.00" from="in_E_r2" to="r2_r3" departLane="best" departSpeed="max"/>
    <trip id="veh123" depart="1230.00" from="r3_r4" to="out_r2_E" departLane="best" departSpeed="max"/>
    <trip id="veh124" depart="1240.00" from="in_E_r2" to="r1_r2" departLane="best" departSpeed="max"/>
    <trip id="veh125" depart="1250.00" from="r3_r4" to="out_r2_E" departLane="best" departSpeed="max"/>
    <trip id="veh126" depart="1260.00" from="r2_r3" to="out_r4_W" departLane="best" departSpeed="max"/>
    <trip id="veh127" depart="1270.00" from="in_W_r4" to="out_r2_E" departLane="best" departSpeed="max"/>
    <trip id="veh128" depart="1280.00" from="in_S_r3" to="r1_r2" departLane="best" departSpeed="max"/>
    <trip id="veh129" depart="1290.00" from="in_S_r3" to="r2_r3" departLane="best" departSpeed="max"/>
    <trip id="veh130" depart="1300.00" from="in_E_r2" to="r2_r3" departLane="best" departSpeed="max"/>
    <trip id="veh131" depart="1310.00" from="in_N_r1" to="r3_r4" departLane="best" departSpeed="max"/>
    <trip id="veh132" depart="1320.00" from="r4_r1" to="out_r3_S" departLane="best" departSpeed="max"/>
    <trip id="veh133" depart="1330.00" from="r3_r4" to="out_r2_E" departLane="best" departSpeed="max"/>
    <trip id="veh134" depart="1340.00" from="in_S_r3" to="out_r1_N" departLane="best" departSpeed="max"/>
    <trip id="veh135" depart="1350.00" from="in_W_r4" to="out_r1_N" departLane="best" departSpeed="max"/>
    <trip id="veh136" depart="1360.00" from="in_W_r4" to="r2_r3" departLane="best" departSpeed="max"/>
    <trip id="veh137" depart="1370.00" from="in_N_r1" to="out_r3_S" departLane="best" departSpeed="max"/>
    <trip id="veh138" depart="1380.00" from="in_S_r3" to="out_r1_N" departLane="best" departSpeed="max"/>
    <trip id="veh139" depart="1390.00" from="r4_r1" to="out_r1_N" departLane="best" departSpeed="max"/>
    <trip id="veh140" depart="1400.00" from="in_E_r2" to="r3_r4" departLane="best" departSpeed="max"/>
    <trip id="veh141" depart="1410.00" from="r3_r4" to="out_r4_W" departLane="best" departSpeed="max"/>
    <trip id="veh142" depart="1420.00" from="in_W_r4" to="out_r2_E" departLane="best" departSpeed="max"/>
    <trip id="veh143" depart="1430.00" from="in_E_r2" to="r1_r2" departLane="best" departSpeed="max"/>
    <trip id="veh144" depart="1440.00" from="in_N_r1" to="out_r2_E" departLane="best" departSpeed="max"/>
    <trip id="veh145" depart="1450.00" from="r4_r1" to="out_r1_N" departLane="best" departSpeed="max"/>
    <trip id="veh146" depart="1460.00" from="in_S_r3" to="r3_r4" departLane="best" departSpeed="max"/>
    <trip id="veh147" depart="1470.00" from="r2_r3" to="out_r1_N" departLane="best" departSpeed="max"/>
    <trip id="veh148" depart="1480.00" from="r3_r4" to="out_r4_W" departLane="best" departSpeed="max"/>
    <trip id="veh149" depart="1490.00" from="r1_r2" to="out_r4_W" departLane="best" departSpeed="max"/>
    <trip id="veh150" depart="1500.00" from="in_E_r2" to="r3_r4" departLane="best" departSpeed="max"/>
    <trip id="veh151" depart="1510.00" from="in_S_r3" to="out_r4_W" departLane="best" departSpeed="max"/>
    <trip id="veh152" depart="1520.00" from="in_S_r3" to="r1_r2" departLane="best" departSpeed="max"/>
    <trip id="veh153" depart="1530.00" from="in_W_r4" to="r3_r4" departLane="best" departSpeed="max"/>
    <trip id="veh154" depart="1540.00" from="r3_r4" to="out_r4_W" departLane="best" departSpeed="max"/>
    <trip id="veh155" depart="1550.00" from="r1_r2" to="out_r2_E" departLane="best" departSpeed="max"/>
    <trip id="veh156" depart="1560.00" from="in_N_r1" to="out_r4_W" departLane="best" departSpeed="max"/>
    <trip id="veh157" depart="1570.00" from="in_W_r4" to="r4_r1" departLane="best" departSpeed="max"/>
    <trip id="veh158" depart="1580.00" from="in_E_r2" to="out_r3_S" departLane="best" departSpeed="max"/>
    <trip id="veh159" depart="1590.00" from="r2_r3" to="out_r4_W" departLane="best" departSpeed="max"/>
    <trip id="veh160" depart="1600.00" from="r3_r4" to="out_r2_E" departLane="best" departSpeed="max"/>
    <trip id="veh161" depart="1610.00" from="r3_r4" to="out_r4_W" departLane="best" departSpeed="max"/>
    <trip id="veh162" depart="1620.00" from="r1_r2" to="out_r1_N" departLane="best" departSpeed="max"/>
    <trip id="veh163" depart="1630.00" from="in_W_r4" to="r3_r4" departLane="best" departSpeed="max"/>
    <trip id="veh164" depart="1640.00" from="in_W_r4" to="out_r1_N" departLane="best" departSpeed="max"/>
    <trip id="veh165" depart="1650.00" from="r2_r3" to="out_r4_W" departLane="best" departSpeed="max"/>
    <trip id="veh166" depart="1660.00" from="in_W_r4" to="r3_r4" departLane="best" departSpeed="max"/>
    <trip id="veh167" depart="1670.00" from="in_N_r1" to="r4_r1" departLane="best" departSpeed="max"/>
    <trip id="veh168" depart="1680.00" from="in_E_r2" to="r4_r1" departLane="best" departSpeed="max"/>
    <trip id="veh169" depart="1690.00" from="r1_r2" to="out_r4_W" departLane="best" departSpeed="max"/>
    <trip id="veh170" depart="1700.00" from="r1_r2" to="out_r1_N" departLane="best" departSpeed="max"/>
    <trip id="veh171" depart="1710.00" from="in_W_r4" to="r4_r1" departLane="best" departSpeed="max"/>
    <trip id="veh172" depart="1720.00" from="r3_r4" to="out_r4_W" departLane="best" departSpeed="max"/>
    <trip id="veh173" depart="1730.00" from="in_E_r2" to="r3_r4" departLane="best" departSpeed="max"/>
    <trip id="veh174" depart="1740.00" from="in_N_r1" to="r2_r3" departLane="best" departSpeed="max"/>
    <trip id="veh175" depart="1750.00" from="in_W_r4" to="r4_r1" departLane="best" departSpeed="max"/>
    <trip id="veh176" depart="1760.00" from="in_N_r1" to="r3_r4" departLane="best" departSpeed="max"/>
    <trip id="veh177" depart="1770.00" from="r2_r3" to="out_r1_N" departLane="best" departSpeed="max"/>
    <trip id="veh178" depart="1780.00" from="r1_r2" to="out_r3_S" departLane="best" departSpeed="max"/>
    <trip id="veh179" depart="1790.00" from="r2_r3" to="out_r4_W" departLane="best" departSpeed="max"/>
    <trip id="veh180" depart="1800.00" from="r1_r2" to="out_r2_E" departLane="best" departSpeed="max"/>
    <trip id="veh181" depart="1810.00" from="in_W_r4" to="out_r1_N" departLane="best" departSpeed="max"/>
    <trip id="veh182" depart="1820.00" from="r2_r3" to="out_r1_N" departLane="best" departSpeed="max"/>
    <trip id="veh183" depart="1830.00" from="r1_r2" to="out_r2_E" departLane="best" departSpeed="max"/>
    <trip id="veh184" depart="1840.00" from="r1_r2" to="out_r1_N" departLane="best" departSpeed="max"/>
    <trip id="veh185" depart="1850.00" from="in_E_r2" to="r1_r2" departLane="best" departSpeed="max"/>
    <trip id="veh186" depart="1860.00" from="in_N_r1" to="r2_r3" departLane="best" departSpeed="max"/>
    <trip id="veh187" depart="1870.00" from="r2_r3" to="out_r2_E" departLane="best" departSpeed="max"/>
    <trip id="veh188" depart="1880.00" from="in_N_r1" to="out_r2_E" departLane="best" departSpeed="max"/>
    <trip id="veh189" depart="1890.00" from="in_E_r2" to="r2_r3" departLane="best" departSpeed="max"/>
    <trip id="veh190" depart="1900.00" from="r1_r2" to="out_r2_E" departLane="best" departSpeed="max"/>
    <trip id="veh191" depart="1910.00" from="r1_r2" to="out_r2_E" departLane="best" departSpeed="max"/>
    <trip id="veh192" depart="1920.00" from="in_S_r3" to="out_r4_W" departLane="best" departSpeed="max"/>
    <trip id="veh193" depart="1930.00" from="r3_r4" to="out_r1_N" departLane="best" departSpeed="max"/>
    <trip id="veh194" depart="1940.00" from="in_W_r4" to="out_r2_E" departLane="best" departSpeed="max"/>
    <trip id="veh195" depart="1950.00" from="in_S_r3" to="r2_r3" departLane="best" departSpeed="max"/>
    <trip id="veh196" depart="1960.00" from="in_W_r4" to="out_r2_E" departLane="best" departSpeed="max"/>
    <trip id="veh197" depart="1970.00" from="in_S_r3" to="r1_r2" departLane="best" departSpeed="max"/>
    <trip id="veh198" depart="1980.00" from="in_E_r2" to="r3_r4" departLane="best" departSpeed="max"/>
    <trip id="veh199" depart="1990.00" from="r1_r2" to="out_r4_W" departLane="best" departSpeed="max"/>
    <trip id="veh200" depart="2000.00" from="in_N_r1" to="out_r4_W" departLane="best" departSpeed="max"/>
    <trip id="veh201" depart="2010.00" from="r2_r3" to="out_r3_S" departLane="best" departSpeed="max"/>
    <trip id="veh202" depart="2020.00" from="in_N_r1" to="r4_r1" departLane="best" departSpeed="max"/>
    <trip id="veh203" depart="2030.00" from="in_W_r4" to="out_r1_N" departLane="best" departSpeed="max"/>
    <trip id="veh204" depart="2040.00" from="r4_r1" to="out_r1_N" departLane="best" departSpeed="max"/>
    <trip id="veh205" depart="2050.00" from="in_S_r3" to="r1_r2" departLane="best" departSpeed="max"/>
    <trip id="veh206" depart="2060.00" from="in_N_r1" to="r1_r2" departLane="best" departSpeed="max"/>
    <trip id="veh207" depart="2070.00" from="r4_r1" to="out_r4_W" departLane="best" departSpeed="max"/>
    <trip id="veh208" depart="2080.00" from="r2_r3" to="out_r4_W" departLane="best" departSpeed="max"/>
    <trip id="veh209" depart="2090.00" from="in_S_r3" to="r2_r3" departLane="best" departSpeed="max"/>
    <trip id="veh210" depart="2100.00" from="in_S_r3" to="r4_r1" departLane="best" departSpeed="max"/>
    <trip id="veh211" depart="2110.00" from="r4_r1" to="out_r2_E" departLane="best" departSpeed="max"/>
    <trip id="veh212" depart="2120.00" from="r1_r2" to="out_r1_N" departLane="best" departSpeed="max"/>
    <trip id="veh213" depart="2130.00" from="in_S_r3" to="r3_r4" departLane="best" departSpeed="max"/>
    <trip id="veh214" depart="2140.00" from="in_W_r4" to="out_r2_E" departLane="best" departSpeed="max"/>
    <trip id="veh215" depart="2150.00" from="in_N_r1" to="r1_r2" departLane="best" departSpeed="max"/>
    <trip id="veh216" depart="2160.00" from="in_W_r4" to="out_r1_N" departLane="best" departSpeed="max"/>
    <trip id="veh217" depart="2170.00" from="in_S_r3" to="r4_r1" departLane="best" departSpeed="max"/>
    <trip id="veh218" depart="2180.00" from="in_W_r4" to="r2_r3" departLane="best" departSpeed="max"/>
    <trip id="veh219" depart="2190.00" from="in_W_r4" to="out_r1_N" departLane="best" departSpeed="max"/>
    <trip id="veh220" depart="2200.00" from="r1_r2" to="out_r2_E" departLane="best" departSpeed="max"/>
    <trip id="veh221" depart="2210.00" from="in_E_r2" to="r1_r2" departLane="best" departSpeed="max"/>
    <trip id="veh222" depart="2220.00" from="r2_r3" to="out_r1_N" departLane="best" departSpeed="max"/>
    <trip id="veh223" depart="2230.00" from="r4_r1" to="out_r1_N" departLane="best" departSpeed="max"/>
    <trip id="veh224" depart="2240.00" from="in_N_r1" to="out_r3_S" departLane="best" departSpeed="max"/>
    <trip id="veh225" depart="2250.00" from="r2_r3" to="out_r4_W" departLane="best" departSpeed="max"/>
    <trip id="veh226" depart="2260.00" from="r4_r1" to="out_r2_E" departLane="best" departSpeed="max"/>
    <trip id="veh227" depart="2270.00" from="r4_r1" to="out_r1_N" departLane="best" departSpeed="max"/>
    <trip id="veh228" depart="2280.00" from="in_N_r1" to="r3_r4" departLane="best" departSpeed="max"/>
    <trip id="veh229" depart="2290.00" from="in_N_r1" to="r3_r4" departLane="best" departSpeed="max"/>
    <trip id="veh230" depart="2300.00" from="r1_r2" to="out_r2_E" departLane="best" departSpeed="max"/>
    <trip id="veh231" depart="2310.00" from="in_E_r2" to="r4_r1" departLane="best" departSpeed="max"/>
    <trip id="veh232" depart="2320.00" from="in_S_r3" to="r4_r1" departLane="best" departSpeed="max"/>
    <trip id="veh233" depart="2330.00" from="r2_r3" to="out_r1_N" departLane="best" departSpeed="max"/>
    <trip id="veh234" depart="2340.00" from="r2_r3" to="out_r2_E" departLane="best" departSpeed="max"/>
    <trip id="veh235" depart="2350.00" from="in_E_r2" to="r2_r3" departLane="best" departSpeed="max"/>
    <trip id="veh236" depart="2360.00" from="r3_r4" to="out_r4_W" departLane="best" departSpeed="max"/>
    <trip id="veh237" depart="2370.00" from="in_S_r3" to="r1_r2" departLane="best" departSpeed="max"/>
    <trip id="veh238" depart="2380.00" from="in_E_r2" to="out_r4_W" departLane="best" departSpeed="max"/>
    <trip id="veh239" depart="2390.00" from="in_E_r2" to="r4_r1" departLane="best" departSpeed="max"/>
    <trip id="veh240" depart="2400.00" from="in_S_r3" to="out_r2_E" departLane="best" departSpeed="max"/>
    <trip id="veh241" depart="2410.00" from="in_E_r2" to="r2_r3" departLane="best" departSpeed="max"/>
    <trip id="veh242" depart="2420.00" from="in_W_r4" to="out_r2_E" departLane="best" departSpeed="max"/>
    <trip id="veh243" depart="2430.00" from="r1_r2" to="out_r1_N" departLane="best" departSpeed="max"/>
    <trip id="veh244" depart="2440.00" from="in_W_r4" to="out_r3_S" departLane="best" departSpeed="max"/>
    <trip id="veh245" depart="2450.00" from="in_W_r4" to="out_r2_E" departLane="best" departSpeed="max"/>
    <trip id="veh246" depart="2460.00" from="in_S_r3" to="r2_r3" departLane="best" departSpeed="max"/>
    <trip id="veh247" depart="2470.00" from="in_W_r4" to="out_r1_N" departLane="best" departSpeed="max"/>
    <trip id="veh248" depart="2480.00" from="in_N_r1" to="r3_r4" departLane="best" departSpeed="max"/>
    <trip id="veh249" depart="2490.00" from="in_S_r3" to="r3_r4" departLane="best" departSpeed="max"/>
    <trip id="veh250" depart="2500.00" from="in_S_r3" to="r1_r2" departLane="best" departSpeed="max"/>
    <trip id="veh251" depart="2510.00" from="in_W_r4" to="r1_r2" departLane="best" departSpeed="max"/>
    <trip id="veh252" depart="2520.00" from="r4_r1" to="out_r1_N" departLane="best" departSpeed="max"/>
    <trip id="veh253" depart="2530.00" from="in_N_r1" to="r4_r1" departLane="best" departSpeed="max"/>
    <trip id="veh254" depart="2540.00" from="r3_r4" to="out_r1_N" departLane="best" departSpeed="max"/>
    <trip id="veh255" depart="2550.00" from="r2_r3" to="out_r1_N" departLane="best" departSpeed="max"/>
    <trip id="veh256" depart="2560.00" from="r3_r4" to="out_r4_W" departLane="best" departSpeed="max"/>
    <trip id="veh257" depart="2570.00" from="in_W_r4" to="r1_r2" departLane="best" departSpeed="max"/>
    <trip id="veh258" depart="2580.00" from="in_N_r1" to="r1_r2" departLane="best" departSpeed="max"/>
    <trip id="veh259" depart="2590.00" from="r3_r4" to="out_r4_W" departLane="best" departSpeed="max"/>
    <trip id="veh260" depart="2600.00" from="in_W_r4" to="out_r3_S" departLane="best" departSpeed="max"/>
    <trip id="veh261" depart="2610.00" from="in_N_r1" to="out_r3_S" departLane="best" departSpeed="max"/>
    <trip id="veh262" depart="2620.00" from="in_S_r3" to="r3_r4" departLane="best" departSpeed="max"/>
    <trip id="veh263" depart="2630.00" from="in_S_r3" to="out_r2_E" departLane="best" departSpeed="max"/>
    <trip id="veh264" depart="2640.00" from="in_S_r3" to="out_r1_N" departLane="best" departSpeed="max"/>
    <trip id="veh265" depart="2650.00" from="in_N_r1" to="out_r2_E" departLane="best" departSpeed="max"/>
    <trip id="veh266" depart="2660.00" from="r1_r2" to="out_r1_N" departLane="best" departSpeed="max"/>
    <trip id="veh267" depart="2670.00" from="in_E_r2" to="r1_r2" departLane="best" departSpeed="max"/>
    <trip id="veh268" depart="2680.00" from="in_W_r4" to="out_r3_S" departLane="best" departSpeed="max"/>
    <trip id="veh269" depart="2690.00" from="in_W_r4" to="out_r1_N" departLane="best" departSpeed="max"/>
    <trip id="veh270" depart="2700.00" from="in_S_r3" to="out_r2_E" departLane="best" departSpeed="max"/>
    <trip id="veh271" depart="2710.00" from="r3_r4" to="out_r1_N" departLane="best" departSpeed="max"/>
    <trip id="veh272" depart="2720.00" from="in_W_r4" to="out_r2_E" departLane="best" departSpeed="max"/>
    <trip id="veh273" depart="2730.00" from="in_N_r1" to="r3_r4" departLane="best" departSpeed="max"/>
    <trip id="veh274" depart="2740.00" from="in_S_r3" to="r1_r2" departLane="best" departSpeed="max"/>
    <trip id="veh275" depart="2750.00" from="in_W_r4" to="out_r1_N" departLane="best" departSpeed="max"/>
    <trip id="veh276" depart="2760.00" from="in_W_r4" to="r1_r2" departLane="best" departSpeed="max"/>
    <trip id="veh277" depart="2770.00" from="in_W_r4" to="r3_r4" departLane="best" departSpeed="max"/>
    <trip id="veh278" depart="2780.00" from="in_W_r4" to="out_r3_S" departLane="best" departSpeed="max"/>
    <trip id="veh279" depart="2790.00" from="in_S_r3" to="r4_r1" departLane="best" departSpeed="max"/>
    <trip id="veh280" depart="2800.00" from="in_W_r4" to="r1_r2" departLane="best" departSpeed="max"/>
    <trip id="veh281" depart="2810.00" from="in_W_r4" to="r3_r4" departLane="best" departSpeed="max"/>
    <trip id="veh282" depart="2820.00" from="r2_r3" to="out_r4_W" departLane="best" departSpeed="max"/>
    <trip id="veh283" depart="2830.00" from="in_S_r3" to="r3_r4" departLane="best" departSpeed="max"/>