<?xml version="1.0" encoding="UTF-8"?>

<!-- generated on 2025-06-18 10:37:55.353992 by randomTrips.py v1_23_1+0000-676720d13f6
<configuration>
    <net-file value="tl_intersection.net.xml"/>
    <output-trip-file value="tl_intersection.rou.xml"/>
    <prefix value="veh"/>
    <trip-attributes value="departLane=&quot;best&quot; departSpeed=&quot;max&quot;"/>
    <seed value="13"/>
    <min-distance value="20.0"/>
    <period value="6.0"/>
</configuration>
-->

<routes xmlns:xsi="http://www.w3.org/2001/XMLSchema-instance" xsi:noNamespaceSchemaLocation="http://sumo.dlr.de/xsd/routes_file.xsd">
    <trip id="veh0" depart="0.00" from="in_n3_1" to="out_1_n4" departLane="best" departSpeed="max"/>
    <trip id="veh1" depart="6.00" from="in_n4_1" to="out_1_n5" departLane="best" departSpeed="max"/>
    <trip id="veh2" depart="12.00" from="in_n4_1" to="out_1_n2" departLane="best" departSpeed="max"/>
    <trip id="veh3" depart="18.00" from="in_n4_1" to="out_1_n2" departLane="best" departSpeed="max"/>
    <trip id="veh4" depart="24.00" from="in_n5_1" to="out_1_n4" departLane="best" departSpeed="max"/>
    <trip id="veh5" depart="30.00" from="in_n2_1" to="out_1_n3" departLane="best" departSpeed="max"/>
    <trip id="veh6" depart="36.00" from="in_n2_1" to="out_1_n5" departLane="best" departSpeed="max"/>
    <trip id="veh7" depart="42.00" from="in_n5_1" to="out_1_n4" departLane="best" departSpeed="max"/>
    <trip id="veh8" depart="48.00" from="in_n3_1" to="out_1_n5" departLane="best" departSpeed="max"/>
    <trip id="veh9" depart="54.00" from="in_n3_1" to="out_1_n5" departLane="best" departSpeed="max"/>
    <trip id="veh10" depart="60.00" from="in_n4_1" to="out_1_n3" departLane="best" departSpeed="max"/>
    <trip id="veh11" depart="66.00" from="in_n3_1" to="out_1_n2" departLane="best" departSpeed="max"/>
    <trip id="veh12" depart="72.00" from="in_n5_1" to="out_1_n4" departLane="best" departSpeed="max"/>
    <trip id="veh13" depart="78.00" from="in_n2_1" to="out_1_n4" departLane="best" departSpeed="max"/>
    <trip id="veh14" depart="84.00" from="in_n3_1" to="out_1_n2" departLane="best" departSpeed="max"/>
    <trip id="veh15" depart="90.00" from="in_n2_1" to="out_1_n4" departLane="best" departSpeed="max"/>
    <trip id="veh16" depart="96.00" from="in_n4_1" to="out_1_n3" departLane="best" departSpeed="max"/>
    <trip id="veh17" depart="102.00" from="in_n2_1" to="out_1_n3" departLane="best" departSpeed="max"/>
    <trip id="veh18" depart="108.00" from="in_n2_1" to="out_1_n3" departLane="best" departSpeed="max"/>
    <trip id="veh19" depart="114.00" from="in_n2_1" to="out_1_n4" departLane="best" departSpeed="max"/>
    <trip id="veh20" depart="120.00" from="in_n5_1" to="out_1_n3" departLane="best" departSpeed="max"/>
    <trip id="veh21" depart="126.00" from="in_n4_1" to="out_1_n5" departLane="best" departSpeed="max"/>
    <trip id="veh22" depart="132.00" from="in_n4_1" to="out_1_n2" departLane="best" departSpeed="max"/>
    <trip id="veh23" depart="138.00" from="in_n3_1" to="out_1_n5" departLane="best" departSpeed="max"/>
    <trip id="veh24" depart="144.00" from="in_n2_1" to="out_1_n5" departLane="best" departSpeed="max"/>
    <trip id="veh25" depart="150.00" from="in_n3_1" to="out_1_n4" departLane="best" departSpeed="max"/>
    <trip id="veh26" depart="156.00" from="in_n2_1" to="out_1_n5" departLane="best" departSpeed="max"/>
    <trip id="veh27" depart="162.00" from="in_n2_1" to="out_1_n4" departLane="best" departSpeed="max"/>
    <trip id="veh28" depart="168.00" from="in_n3_1" to="out_1_n4" departLane="best" departSpeed="max"/>
    <trip id="veh29" depart="174.00" from="in_n2_1" to="out_1_n4" departLane="best" departSpeed="max"/>
    <trip id="veh30" depart="180.00" from="in_n2_1" to="out_1_n4" departLane="best" departSpeed="max"/>
    <trip id="veh31" depart="186.00" from="in_n2_1" to="out_1_n3" departLane="best" departSpeed="max"/>
    <trip id="veh32" depart="192.00" from="in_n3_1" to="out_1_n2" departLane="best" departSpeed="max"/>
    <trip id="veh33" depart="198.00" from="in_n2_1" to="out_1_n5" departLane="best" departSpeed="max"/>
    <trip id="veh34" depart="204.00" from="in_n2_1" to="out_1_n3" departLane="best" departSpeed="max"/>
    <trip id="veh35" depart="210.00" from="in_n3_1" to="out_1_n4" departLane="best" departSpeed="max"/>
    <trip id="veh36" depart="216.00" from="in_n2_1" to="out_1_n3" departLane="best" departSpeed="max"/>
    <trip id="veh37" depart="222.00" from="in_n3_1" to="out_1_n5" departLane="best" departSpeed="max"/>
    <trip id="veh38" depart="228.00" from="in_n2_1" to="out_1_n3" departLane="best" departSpeed="max"/>
    <trip id="veh39" depart="234.00" from="in_n3_1" to="out_1_n5" departLane="best" departSpeed="max"/>
    <trip id="veh40" depart="240.00" from="in_n4_1" to="out_1_n3" departLane="best" departSpeed="max"/>
    <trip id="veh41" depart="246.00" from="in_n4_1" to="out_1_n3" departLane="best" departSpeed="max"/>
    <trip id="veh42" depart="252.00" from="in_n2_1" to="out_1_n4" departLane="best" departSpeed="max"/>
    <trip id="veh43" depart="258.00" from="in_n5_1" to="out_1_n4" departLane="best" departSpeed="max"/>
    <trip id="veh44" depart="264.00" from="in_n3_1" to="out_1_n4" departLane="best" departSpeed="max"/>
    <trip id="veh45" depart="270.00" from="in_n5_1" to="out_1_n3" departLane="best" departSpeed="max"/>
    <trip id="veh46" depart="276.00" from="in_n4_1" to="out_1_n3" departLane="best" departSpeed="max"/>
    <trip id="veh47" depart="282.00" from="in_n2_1" to="out_1_n3" departLane="best" departSpeed="max"/>
    <trip id="veh48" depart="288.00" from="in_n2_1" to="out_1_n3" departLane="best" departSpeed="max"/>
    <trip id="veh49" depart="294.00" from="in_n2_1" to="out_1_n3" departLane="best" departSpeed="max"/>
    <trip id="veh50" depart="300.00" from="in_n2_1" to="out_1_n5" departLane="best" departSpeed="max"/>
    <trip id="veh51" depart="306.00" from="in_n4_1" to="out_1_n2" departLane="best" departSpeed="max"/>
    <trip id="veh52" depart="312.00" from="in_n5_1" to="out_1_n2" departLane="best" departSpeed="max"/>
    <trip id="veh53" depart="318.00" from="in_n3_1" to="out_1_n4" departLane="best" departSpeed="max"/>
    <trip id="veh54" depart="324.00" from="in_n3_1" to="out_1_n2" departLane="best" departSpeed="max"/>
    <trip id="veh55" depart="330.00" from="in_n5_1" to="out_1_n2" departLane="best" departSpeed="max"/>
    <trip id="veh56" depart="336.00" from="in_n5_1" to="out_1_n2" departLane="best" departSpeed="max"/>
    <trip id="veh57" depart="342.00" from="in_n2_1" to="out_1_n4" departLane="best" departSpeed="max"/>
    <trip id="veh58" depart="348.00" from="in_n2_1" to="out_1_n5" departLane="best" departSpeed="max"/>
    <trip id="veh59" depart="354.00" from="in_n3_1" to="out_1_n5" departLane="best" departSpeed="max"/>
    <trip id="veh60" depart="360.00" from="in_n4_1" to="out_1_n2" departLane="best" departSpeed="max"/>
    <trip id="veh61" depart="366.00" from="in_n5_1" to="out_1_n2" departLane="best" departSpeed="max"/>
    <trip id="veh62" depart="372.00" from="in_n3_1" to="out_1_n5" departLane="best" departSpeed="max"/>
    <trip id="veh63" depart="378.00" from="in_n2_1" to="out_1_n4" departLane="best" departSpeed="max"/>
    <trip id="veh64" depart="384.00" from="in_n4_1" to="out_1_n5" departLane="best" departSpeed="max"/>
    <trip id="veh65" depart="390.00" from="in_n4_1" to="out_1_n5" departLane="best" departSpeed="max"/>
    <trip id="veh66" depart="396.00" from="in_n3_1" to="out_1_n4" departLane="best" departSpeed="max"/>
    <trip id="veh67" depart="402.00" from="in_n4_1" to="out_1_n5" departLane="best" departSpeed="max"/>
    <trip id="veh68" depart="408.00" from="in_n5_1" to="out_1_n2" departLane="best" departSpeed="max"/>
    <trip id="veh69" depart="414.00" from="in_n2_1" to="out_1_n4" departLane="best" departSpeed="max"/>
    <trip id="veh70" depart="420.00" from="in_n5_1" to="out_1_n4" departLane="best" departSpeed="max"/>
    <trip id="veh71" depart="426.00" from="in_n3_1" to="out_1_n5" departLane="best" departSpeed="max"/>
    <trip id="veh72" depart="432.00" from="in_n3_1" to="out_1_n2" departLane="best" departSpeed="max"/>
    <trip id="veh73" depart="438.00" from="in_n4_1" to="out_1_n2" departLane="best" departSpeed="max"/>
    <trip id="veh74" depart="444.00" from="in_n4_1" to="out_1_n5" departLane="best" departSpeed="max"/>
    <trip id="veh75" depart="450.00" from="in_n3_1" to="out_1_n4" departLane="best" departSpeed="max"/>
    <trip id="veh76" depart="456.00" from="in_n5_1" to="out_1_n4" departLane="best" departSpeed="max"/>
    <trip id="veh77" depart="462.00" from="in_n3_1" to="out_1_n5" departLane="best" departSpeed="max"/>
    <trip id="veh78" depart="468.00" from="in_n2_1" to="out_1_n3" departLane="best" departSpeed="max"/>
    <trip id="veh79" depart="474.00" from="in_n5_1" to="out_1_n3" departLane="best" departSpeed="max"/>
    <trip id="veh80" depart="480.00" from="in_n3_1" to="out_1_n5" departLane="best" departSpeed="max"/>
    <trip id="veh81" depart="486.00" from="in_n3_1" to="out_1_n2" departLane="best" departSpeed="max"/>
    <trip id="veh82" depart="492.00" from="in_n2_1" to="out_1_n3" departLane="best" departSpeed="max"/>
    <trip id="veh83" depart="498.00" from="in_n3_1" to="out_1_n5" departLane="best" departSpeed="max"/>
    <trip id="veh84" depart="504.00" from="in_n2_1" to="out_1_n5" departLane="best" departSpeed="max"/>
    <trip id="veh85" depart="510.00" from="in_n5_1" to="out_1_n3" departLane="best" departSpeed="max"/>
    <trip id="veh86" depart="516.00" from="in_n3_1" to="out_1_n5" departLane="best" departSpeed="max"/>
    <trip id="veh87" depart="522.00" from="in_n4_1" to="out_1_n2" departLane="best" departSpeed="max"/>
    <trip id="veh88" depart="528.00" from="in_n2_1" to="out_1_n4" departLane="best" departSpeed="max"/>
    <trip id="veh89" depart="534.00" from="in_n2_1" to="out_1_n5" departLane="best" departSpeed="max"/>
    <trip id="veh90" depart="540.00" from="in_n4_1" to="out_1_n3" departLane="best" departSpeed="max"/>
    <trip id="veh91" depart="546.00" from="in_n5_1" to="out_1_n3" departLane="best" departSpeed="max"/>
    <trip id="veh92" depart="552.00" from="in_n4_1" to="out_1_n5" departLane="best" departSpeed="max"/>
    <trip id="veh93" depart="558.00" from="in_n2_1" to="out_1_n4" departLane="best" departSpeed="max"/>
    <trip id="veh94" depart="564.00" from="in_n4_1" to="out_1_n3" departLane="best" departSpeed="max"/>
    <trip id="veh95" depart="570.00" from="in_n5_1" to="out_1_n2" departLane="best" departSpeed="max"/>
    <trip id="veh96" depart="576.00" from="in_n5_1" to="out_1_n2" departLane="best" departSpeed="max"/>
    <trip id="veh97" depart="582.00" from="in_n5_1" to="out_1_n2" departLane="best" departSpeed="max"/>
    <trip id="veh98" depart="588.00" from="in_n2_1" to="out_1_n4" departLane="best" departSpeed="max"/>
    <trip id="veh99" depart="594.00" from="in_n5_1" to="out_1_n3" departLane="best" departSpeed="max"/>
    <trip id="veh100" depart="600.00" from="in_n3_1" to="out_1_n4" departLane="best" departSpeed="max"/>
    <trip id="veh101" depart="606.00" from="in_n2_1" to="out_1_n4" departLane="best" departSpeed="max"/>
    <trip id="veh102" depart="612.00" from="in_n2_1" to="out_1_n3" departLane="best" departSpeed="max"/>
    <trip id="veh103" depart="618.00" from="in_n5_1" to="out_1_n3" departLane="best" departSpeed="max"/>
    <trip id="veh104" depart="624.00" from="in_n4_1" to="out_1_n3" departLane="best" departSpeed="max"/>
    <trip id="veh105" depart="630.00" from="in_n5_1" to="out_1_n4" departLane="best" departSpeed="max"/>
    <trip id="veh106" depart="636.00" from="in_n2_1" to="out_1_n5" departLane="best" departSpeed="max"/>
    <trip id="veh107" depart="642.00" from="in_n5_1" to="out_1_n4" departLane="best" departSpeed="max"/>
    <trip id="veh108" depart="648.00" from="in_n4_1" to="out_1_n3" departLane="best" departSpeed="max"/>
    <trip id="veh109" depart="654.00" from="in_n2_1" to="out_1_n4" departLane="best" departSpeed="max"/>
    <trip id="veh110" depart="660.00" from="in_n4_1" to="out_1_n2" departLane="best" departSpeed="max"/>
    <trip id="veh111" depart="666.00" from="in_n4_1" to="out_1_n5" departLane="best" departSpeed="max"/>
    <trip id="veh112" depart="672.00" from="in_n5_1" to="out_1_n3" departLane="best" departSpeed="max"/>
    <trip id="veh113" depart="678.00" from="in_n5_1" to="out_1_n3" departLane="best" departSpeed="max"/>
    <trip id="veh114" depart="684.00" from="in_n4_1" to="out_1_n3" departLane="best" departSpeed="max"/>
    <trip id="veh115" depart="690.00" from="in_n5_1" to="out_1_n3" departLane="best" departSpeed="max"/>
    <trip id="veh116" depart="696.00" from="in_n5_1" to="out_1_n3" departLane="best" departSpeed="max"/>
    <trip id="veh117" depart="702.00" from="in_n4_1" to="out_1_n5" departLane="best" departSpeed="max"/>
    <trip id="veh118" depart="708.00" from="in_n4_1" to="out_1_n3" departLane="best" departSpeed="max"/>
    <trip id="veh119" depart="714.00" from="in_n2_1" to="out_1_n3" departLane="best" departSpeed="max"/>
    <trip id="veh120" depart="720.00" from="in_n3_1" to="out_1_n5" departLane="best" departSpeed="max"/>
    <trip id="veh121" depart="726.00" from="in_n2_1" to="out_1_n3" departLane="best" departSpeed="max"/>
    <trip id="veh122" depart="732.00" from="in_n3_1" to="out_1_n5" departLane="best" departSpeed="max"/>
    <trip id="veh123" depart="738.00" from="in_n2_1" to="out_1_n5" departLane="best" departSpeed="max"/>
    <trip id="veh124" depart="744.00" from="in_n3_1" to="out_1_n2" departLane="best" departSpeed="max"/>
    <trip id="veh125" depart="750.00" from="in_n5_1" to="out_1_n2" departLane="best" departSpeed="max"/>
    <trip id="veh126" depart="756.00" from="in_n2_1" to="out_1_n3" departLane="best" departSpeed="max"/>
    <trip id="veh127" depart="762.00" from="in_n2_1" to="out_1_n4" departLane="best" departSpeed="max"/>
    <trip id="veh128" depart="768.00" from="in_n4_1" to="out_1_n5" departLane="best" departSpeed="max"/>
    <trip id="veh129" depart="774.00" from="in_n4_1" to="out_1_n5" departLane="best" departSpeed="max"/>
    <trip id="veh130" depart="780.00" from="in_n5_1" to="out_1_n2" departLane="best" departSpeed="max"/>
    <trip id="veh131" depart="786.00" from="in_n2_1" to="out_1_n4" departLane="best" departSpeed="max"/>
    <trip id="veh132" depart="792.00" from="in_n5_1" to="out_1_n2" departLane="best" departSpeed="max"/>
    <trip id="veh133" depart="798.00" from="in_n4_1" to="out_1_n3" departLane="best" departSpeed="max"/>
    <trip id="veh134" depart="804.00" from="in_n3_1" to="out_1_n2" departLane="best" departSpeed="max"/>
    <trip id="veh135" depart="810.00" from="in_n3_1" to="out_1_n4" departLane="best" departSpeed="max"/>
    <trip id="veh136" depart="816.00" from="in_n4_1" to="out_1_n5" departLane="best" departSpeed="max"/>
    <trip id="veh137" depart="822.00" from="in_n3_1" to="out_1_n4" departLane="best" departSpeed="max"/>
    <trip id="veh138" depart="828.00" from="in_n2_1" to="out_1_n4" departLane="best" departSpeed="max"/>
    <trip id="veh139" depart="834.00" from="in_n2_1" to="out_1_n5" departLane="best" departSpeed="max"/>
    <trip id="veh140" depart="840.00" from="in_n5_1" to="out_1_n3" departLane="best" departSpeed="max"/>
    <trip id="veh141" depart="846.00" from="in_n5_1" to="out_1_n2" departLane="best" departSpeed="max"/>
    <trip id="veh142" depart="852.00" from="in_n3_1" to="out_1_n2" departLane="best" departSpeed="max"/>
    <trip id="veh143" depart="858.00" from="in_n3_1" to="out_1_n2" departLane="best" departSpeed="max"/>
    <trip id="veh144" depart="864.00" from="in_n3_1" to="out_1_n4" departLane="best" departSpeed="max"/>
    <trip id="veh145" depart="870.00" from="in_n2_1" to="out_1_n3" departLane="best" departSpeed="max"/>
    <trip id="veh146" depart="876.00" from="in_n3_1" to="out_1_n2" departLane="best" departSpeed="max"/>
    <trip id="veh147" depart="882.00" from="in_n5_1" to="out_1_n2" departLane="best" departSpeed="max"/>
    <trip id="veh148" depart="888.00" from="in_n2_1" to="out_1_n5" departLane="best" departSpeed="max"/>
    <trip id="veh149" depart="894.00" from="in_n5_1" to="out_1_n3" departLane="best" departSpeed="max"/>
    <trip id="veh150" depart="900.00" from="in_n3_1" to="out_1_n2" departLane="best" departSpeed="max"/>
    <trip id="veh151" depart="906.00" from="in_n2_1" to="out_1_n4" departLane="best" departSpeed="max"/>
    <trip id="veh152" depart="912.00" from="in_n5_1" to="out_1_n2" departLane="best" departSpeed="max"/>
    <trip id="veh153" depart="918.00" from="in_n3_1" to="out_1_n5" departLane="best" departSpeed="max"/>
    <trip id="veh154" depart="924.00" from="in_n4_1" to="out_1_n2" departLane="best" departSpeed="max"/>
    <trip id="veh155" depart="930.00" from="in_n4_1" to="out_1_n5" departLane="best" departSpeed="max"/>
    <trip id="veh156" depart="936.00" from="in_n5_1" to="out_1_n4" departLane="best" departSpeed="max"/>
    <trip id="veh157" depart="942.00" from="in_n5_1" to="out_1_n3" departLane="best" departSpeed="max"/>
    <trip id="veh158" depart="948.00" from="in_n4_1" to="out_1_n5" departLane="best" departSpeed="max"/>
    <trip id="veh159" depart="954.00" from="in_n4_1" to="out_1_n3" departLane="best" departSpeed="max"/>
    <trip id="veh160" depart="960.00" from="in_n2_1" to="out_1_n5" departLane="best" departSpeed="max"/>
    <trip id="veh161" depart="966.00" from="in_n3_1" to="out_1_n4" departLane="best" departSpeed="max"/>
    <trip id="veh162" depart="972.00" from="in_n3_1" to="out_1_n5" departLane="best" departSpeed="max"/>
    <trip id="veh163" depart="978.00" from="in_n5_1" to="out_1_n3" departLane="best" departSpeed="max"/>
    <trip id="veh164" depart="984.00" from="in_n4_1" to="out_1_n5" departLane="best" departSpeed="max"/>
    <trip id="veh165" depart="990.00" from="in_n5_1" to="out_1_n4" departLane="best" departSpeed="max"/>
    <trip id="veh166" depart="996.00" from="in_n4_1" to="out_1_n2" departLane="best" departSpeed="max"/>
    <trip id="veh167" depart="1002.00" from="in_n2_1" to="out_1_n3" departLane="best" departSpeed="max"/>
    <trip id="veh168" depart="1008.00" from="in_n3_1" to="out_1_n5" departLane="best" departSpeed="max"/>
    <trip id="veh169" depart="1014.00" from="in_n2_1" to="out_1_n3" departLane="best" departSpeed="max"/>
    <trip id="veh170" depart="1020.00" from="in_n4_1" to="out_1_n3" departLane="best" departSpeed="max"/>
    <trip id="veh171" depart="1026.00" from="in_n5_1" to="out_1_n2" departLane="best" departSpeed="max"/>
    <trip id="veh172" depart="1032.00" from="in_n5_1" to="out_1_n3" departLane="best" departSpeed="max"/>
    <trip id="veh173" depart="1038.00" from="in_n4_1" to="out_1_n2" departLane="best" departSpeed="max"/>
    <trip id="veh174" depart="1044.00" from="in_n3_1" to="out_1_n5" departLane="best" departSpeed="max"/>
    <trip id="veh175" depart="1050.00" from="in_n3_1" to="out_1_n2" departLane="best" departSpeed="max"/>
    <trip id="veh176" depart="1056.00" from="in_n4_1" to="out_1_n3" departLane="best" departSpeed="max"/>
    <trip id="veh177" depart="1062.00" from="in_n3_1" to="out_1_n5" departLane="best" departSpeed="max"/>
    <trip id="veh178" depart="1068.00" from="in_n2_1" to="out_1_n5" departLane="best" departSpeed="max"/>
    <trip id="veh179" depart="1074.00" from="in_n2_1" to="out_1_n5" departLane="best" departSpeed="max"/>
    <trip id="veh180" depart="1080.00" from="in_n4_1" to="out_1_n3" departLane="best" departSpeed="max"/>
    <trip id="veh181" depart="1086.00" from="in_n5_1" to="out_1_n4" departLane="best" departSpeed="max"/>
    <trip id="veh182" depart="1092.00" from="in_n4_1" to="out_1_n2" departLane="best" departSpeed="max"/>
    <trip id="veh183" depart="1098.00" from="in_n5_1" to="out_1_n4" departLane="best" departSpeed="max"/>
    <trip id="veh184" depart="1104.00" from="in_n3_1" to="out_1_n5" departLane="best" departSpeed="max"/>
    <trip id="veh185" depart="1110.00" from="in_n5_1" to="out_1_n3" departLane="best" departSpeed="max"/>
    <trip id="veh186" depart="1116.00" from="in_n2_1" to="out_1_n5" departLane="best" departSpeed="max"/>
    <trip id="veh187" depart="1122.00" from="in_n2_1" to="out_1_n4" departLane="best" departSpeed="max"/>
    <trip id="veh188" depart="1128.00" from="in_n3_1" to="out_1_n5" departLane="best" departSpeed="max"/>
    <trip id="veh189" depart="1134.00" from="in_n2_1" to="out_1_n5" departLane="best" departSpeed="max"/>
    <trip id="veh190" depart="1140.00" from="in_n4_1" to="out_1_n2" departLane="best" departSpeed="max"/>
    <trip id="veh191" depart="1146.00" from="in_n4_1" to="out_1_n3" departLane="best" departSpeed="max"/>
    <trip id="veh192" depart="1152.00" from="in_n4_1" to="out_1_n5" departLane="best" departSpeed="max"/>
    <trip id="veh193" depart="1158.00" from="in_n4_1" to="out_1_n3" departLane="best" departSpeed="max"/>
    <trip id="veh194" depart="1164.00" from="in_n4_1" to="out_1_n2" departLane="best" departSpeed="max"/>
    <trip id="veh195" depart="1170.00" from="in_n3_1" to="out_1_n2" departLane="best" departSpeed="max"/>
    <trip id="veh196" depart="1176.00" from="in_n4_1" to="out_1_n2" departLane="best" departSpeed="max"/>
    <trip id="veh197" depart="1182.00" from="in_n4_1" to="out_1_n2" departLane="best" departSpeed="max"/>
    <trip id="veh198" depart="1188.00" from="in_n4_1" to="out_1_n2" departLane="best" departSpeed="max"/>
    <trip id="veh199" depart="1194.00" from="in_n2_1" to="out_1_n4" departLane="best" departSpeed="max"/>
    <trip id="veh200" depart="1200.00" from="in_n4_1" to="out_1_n5" departLane="best" departSpeed="max"/>
    <trip id="veh201" depart="1206.00" from="in_n4_1" to="out_1_n5" departLane="best" departSpeed="max"/>
    <trip id="veh202" depart="1212.00" from="in_n2_1" to="out_1_n4" departLane="best" departSpeed="max"/>
    <trip id="veh203" depart="1218.00" from="in_n4_1" to="out_1_n2" departLane="best" departSpeed="max"/>
    <trip id="veh204" depart="1224.00" from="in_n4_1" to="out_1_n5" departLane="best" departSpeed="max"/>
    <trip id="veh205" depart="1230.00" from="in_n2_1" to="out_1_n4" departLane="best" departSpeed="max"/>
    <trip id="veh206" depart="1236.00" from="in_n4_1" to="out_1_n2" departLane="best" departSpeed="max"/>
    <trip id="veh207" depart="1242.00" from="in_n4_1" to="out_1_n2" departLane="best" departSpeed="max"/>
    <trip id="veh208" depart="1248.00" from="in_n5_1" to="out_1_n2" departLane="best" departSpeed="max"/>
    <trip id="veh209" depart="1254.00" from="in_n3_1" to="out_1_n2" departLane="best" departSpeed="max"/>
    <trip id="veh210" depart="1260.00" from="in_n4_1" to="out_1_n5" departLane="best" departSpeed="max"/>
    <trip id="veh211" depart="1266.00" from="in_n3_1" to="out_1_n4" departLane="best" departSpeed="max"/>
    <trip id="veh212" depart="1272.00" from="in_n3_1" to="out_1_n2" departLane="best" departSpeed="max"/>
    <trip id="veh213" depart="1278.00" from="in_n3_1" to="out_1_n4" departLane="best" departSpeed="max"/>
    <trip id="veh214" depart="1284.00" from="in_n5_1" to="out_1_n4" departLane="best" departSpeed="max"/>
    <trip id="veh215" depart="1290.00" from="in_n2_1" to="out_1_n5" departLane="best" departSpeed="max"/>
    <trip id="veh216" depart="1296.00" from="in_n4_1" to="out_1_n3" departLane="best" departSpeed="max"/>
    <trip id="veh217" depart="1302.00" from="in_n2_1" to="out_1_n3" departLane="best" departSpeed="max"/>
    <trip id="veh218" depart="1308.00" from="in_n4_1" to="out_1_n3" departLane="best" departSpeed="max"/>
    <trip id="veh219" depart="1314.00" from="in_n2_1" to="out_1_n5" departLane="best" departSpeed="max"/>
    <trip id="veh220" depart="1320.00" from="in_n3_1" to="out_1_n2" departLane="best" departSpeed="max"/>
    <trip id="veh221" depart="1326.00" from="in_n5_1" to="out_1_n2" departLane="best" departSpeed="max"/>
    <trip id="veh222" depart="1332.00" from="in_n3_1" to="out_1_n4" departLane="best" departSpeed="max"/>
    <trip id="veh223" depart="1338.00" from="in_n4_1" to="out_1_n5" departLane="best" departSpeed="max"/>
    <trip id="veh224" depart="1344.00" from="in_n2_1" to="out_1_n4" departLane="best" departSpeed="max"/>
    <trip id="veh225" depart="1350.00" from="in_n5_1" to="out_1_n3" departLane="best" departSpeed="max"/>
    <trip id="veh226" depart="1356.00" from="in_n4_1" to="out_1_n3" departLane="best" departSpeed="max"/>
    <trip id="veh227" depart="1362.00" from="in_n4_1" to="out_1_n5" departLane="best" departSpeed="max"/>
    <trip id="veh228" depart="1368.00" from="in_n3_1" to="out_1_n4" departLane="best" departSpeed="max"/>
    <trip id="veh229" depart="1374.00" from="in_n3_1" to="out_1_n5" departLane="best" departSpeed="max"/>
    <trip id="veh230" depart="1380.00" from="in_n5_1" to="out_1_n4" departLane="best" departSpeed="max"/>
    <trip id="veh231" depart="1386.00" from="in_n5_1" to="out_1_n2" departLane="best" departSpeed="max"/>
    <trip id="veh232" depart="1392.00" from="in_n4_1" to="out_1_n2" departLane="best" departSpeed="max"/>
    <trip id="veh233" depart="1398.00" from="in_n3_1" to="out_1_n5" departLane="best" departSpeed="max"/>
    <trip id="veh234" depart="1404.00" from="in_n3_1" to="out_1_n2" departLane="best" departSpeed="max"/>
    <trip id="veh235" depart="1410.00" from="in_n2_1" to="out_1_n4" departLane="best" departSpeed="max"/>
    <trip id="veh236" depart="1416.00" from="in_n3_1" to="out_1_n2" departLane="best" departSpeed="max"/>
    <trip id="veh237" depart="1422.00" from="in_n3_1" to="out_1_n5" departLane="best" departSpeed="max"/>
    <trip id="veh238" depart="1428.00" from="in_n3_1" to="out_1_n4" departLane="best" departSpeed="max"/>
    <trip id="veh239" depart="1434.00" from="in_n3_1" to="out_1_n2" departLane="best" departSpeed="max"/>
    <trip id="veh240" depart="1440.00" from="in_n4_1" to="out_1_n2" departLane="best" departSpeed="max"/>
    <trip id="veh241" depart="1446.00" from="in_n2_1" to="out_1_n4" departLane="best" departSpeed="max"/>
    <trip id="veh242" depart="1452.00" from="in_n4_1" to="out_1_n2" departLane="best" departSpeed="max"/>
    <trip id="veh243" depart="1458.00" from="in_n5_1" to="out_1_n2" departLane="best" departSpeed="max"/>
    <trip id="veh244" depart="1464.00" from="in_n2_1" to="out_1_n3" departLane="best" departSpeed="max"/>
    <trip id="veh245" depart="1470.00" from="in_n5_1" to="out_1_n4" departLane="best" departSpeed="max"/>
    <trip id="veh246" depart="1476.00" from="in_n4_1" to="out_1_n3" departLane="best" departSpeed="max"/>
    <trip id="veh247" depart="1482.00" from="in_n5_1" to="out_1_n2" departLane="best" departSpeed="max"/>
    <trip id="veh248" depart="1488.00" from="in_n5_1" to="out_1_n2" departLane="best" departSpeed="max"/>
    <trip id="veh249" depart="1494.00" from="in_n2_1" to="out_1_n5" departLane="best" departSpeed="max"/>
    <trip id="veh250" depart="1500.00" from="in_n5_1" to="out_1_n4" departLane="best" departSpeed="max"/>
    <trip id="veh251" depart="1506.00" from="in_n2_1" to="out_1_n5" departLane="best" departSpeed="max"/>
    <trip id="veh252" depart="1512.00" from="in_n4_1" to="out_1_n2" departLane="best" departSpeed="max"/>
    <trip id="veh253" depart="1518.00" from="in_n2_1" to="out_1_n5" departLane="best" departSpeed="max"/>
    <trip id="veh254" depart="1524.00" from="in_n3_1" to="out_1_n5" departLane="best" departSpeed="max"/>
    <trip id="veh255" depart="1530.00" from="in_n4_1" to="out_1_n2" departLane="best" departSpeed="max"/>
    <trip id="veh256" depart="1536.00" from="in_n4_1" to="out_1_n2" departLane="best" departSpeed="max"/>
    <trip id="veh257" depart="1542.00" from="in_n2_1" to="out_1_n4" departLane="best" departSpeed="max"/>
    <trip id="veh258" depart="1548.00" from="in_n5_1" to="out_1_n3" departLane="best" departSpeed="max"/>
    <trip id="veh259" depart="1554.00" from="in_n3_1" to="out_1_n4" departLane="best" departSpeed="max"/>
    <trip id="veh260" depart="1560.00" from="in_n2_1" to="out_1_n3" departLane="best" departSpeed="max"/>
    <trip id="veh261" depart="1566.00" from="in_n4_1" to="out_1_n5" departLane="best" departSpeed="max"/>
    <trip id="veh262" depart="1572.00" from="in_n2_1" to="out_1_n5" departLane="best" departSpeed="max"/>
    <trip id="veh263" depart="1578.00" from="in_n3_1" to="out_1_n2" departLane="best" departSpeed="max"/>
    <trip id="veh264" depart="1584.00" from="in_n2_1" to="out_1_n4" departLane="best" departSpeed="max"/>
    <trip id="veh265" depart="1590.00" from="in_n3_1" to="out_1_n2" departLane="best" departSpeed="max"/>
    <trip id="veh266" depart="1596.00" from="in_n4_1" to="out_1_n2" departLane="best" departSpeed="max"/>
    <trip id="veh267" depart="1602.00" from="in_n4_1" to="out_1_n5" departLane="best" departSpeed="max"/>
    <trip id="veh268" depart="1608.00" from="in_n3_1" to="out_1_n2" departLane="best" departSpeed="max"/>
    <trip id="veh269" depart="1614.00" from="in_n3_1" to="out_1_n4" departLane="best" departSpeed="max"/>
    <trip id="veh270" depart="1620.00" from="in_n3_1" to="out_1_n2" departLane="best" departSpeed="max"/>
    <trip id="veh271" depart="1626.00" from="in_n2_1" to="out_1_n5" departLane="best" departSpeed="max"/>
    <trip id="veh272" depart="1632.00" from="in_n3_1" to="out_1_n5" departLane="best" departSpeed="max"/>
    <trip id="veh273" depart="1638.00" from="in_n3_1" to="out_1_n4" departLane="best" departSpeed="max"/>
    <trip id="veh274" depart="1644.00" from="in_n3_1" to="out_1_n4" departLane="best" departSpeed="max"/>
    <trip id="veh275" depart="1650.00" from="in_n5_1" to="out_1_n2" departLane="best" departSpeed="max"/>
    <trip id="veh276" depart="1656.00" from="in_n2_1" to="out_1_n5" departLane="best" departSpeed="max"/>
    <trip id="veh277" depart="1662.00" from="in_n5_1" to="out_1_n2" departLane="best" departSpeed="max"/>
    <trip id="veh278" depart="1668.00" from="in_n4_1" to="out_1_n2" departLane="best" departSpeed="max"/>
    <trip id="veh279" depart="1674.00" from="in_n5_1" to="out_1_n3" departLane="best" departSpeed="max"/>