<configuration>
    <input>
        <net-file value="../network/network.net.xml"/>
        <route-files value="../routes/trips.trips.xml"/>
    </input>
    <time>
        <begin value="0"/>
        <end value="100"/>
    </time>
</configuration>