<?xml version="1.0" encoding="UTF-8"?>
<connections>
    <!-- Four-way stop at node n5 -->
    <connection from="n1n5" to="n5n2" fromLane="0" toLane="0" />
    <connection from="n1n5" to="n5n3" fromLane="0" toLane="0" />
    <connection from="n1n5" to="n5n4" fromLane="0" toLane="0" />

    <connection from="n2n5" to="n5n1" fromLane="0" toLane="0" />
    <connection from="n2n5" to="n5n3" fromLane="0" toLane="0" />
    <connection from="n2n5" to="n5n4" fromLane="0" toLane="0" />

    <connection from="n3n5" to="n5n1" fromLane="0" toLane="0" />
    <connection from="n3n5" to="n5n2" fromLane="0" toLane="0" />
    <connection from="n3n5" to="n5n4" fromLane="0" toLane="0" />

    <connection from="n4n5" to="n5n1" fromLane="0" toLane="0" />
    <connection from="n4n5" to="n5n2" fromLane="0" toLane="0" />
    <connection from="n4n5" to="n5n3" fromLane="0" toLane="0" />

    <!-- Traffic light at node n9 -->
    <connection from="n6n9" to="n9n7" fromLane="0" toLane="0" tl="n9" linkIndex="0" />
    <connection from="n6n9" to="n9n8" fromLane="0" toLane="0" tl="n9" linkIndex="1" />

    <connection from="n7n9" to="n9n6" fromLane="0" toLane="0" tl="n9" linkIndex="2" />
    <connection from="n7n9" to="n9n8" fromLane="0" toLane="0" tl="n9" linkIndex="3" />

    <connection from="n8n9" to="n9n6" fromLane="0" toLane="0" tl="n9" linkIndex="4" />
    <connection from="n8n9" to="n9n7" fromLane="0" toLane="0" tl="n9" linkIndex="5" />

    <!-- Connections bridging n9 and n5 -->
    <connection from="n9n5" to="n5n1" fromLane="0" toLane="0" />
    <connection from="n9n5" to="n5n2" fromLane="0" toLane="0" />
    <connection from="n5n9" to="n9n6" fromLane="0" toLane="0" />
    <connection from="n5n9" to="n9n7" fromLane="0" toLane="0" />
    <connection from="n5n9" to="n9n8" fromLane="0" toLane="0" />

</connections>
